20
Lattice="6.85223 0.0 0.0 0.0 7.09332 0.0 0.0 -3.5466599999999984 6.142995317172236" Properties=species:S:1:pos:R:3 config_type=buildcell buildcell_config_i=50 RSS_min_vol_per_atom=7.0 buildcell_type=wide gap_rss_group=ALL gap_rss_iter=1 buildcell_symmetry="174 P-6 P -6 @ 0.01" pbc="T T T"
Li       0.00000000       0.26405877       5.80103565
Li       0.00000000      -1.60921363       3.47115909
Li       0.00000000       1.34515486       3.01379589
Li       4.77604337      -0.00000035       4.09533042
Li       2.07618663      -0.00000035       4.09533042
Cu       4.57611380      -0.05014623       1.32882203
Cu       4.57611380      -2.37079325       5.52201221
Cu       4.57611380       2.42093948       5.43515640
Cu       2.27611620      -0.05014623       1.32882203
Cu       2.27611620      -2.37079325       5.52201221
Cu       2.27611620       2.42093948       5.43515640
Cu       1.60847534       2.22464745       1.31403461
Cu       1.60847534       3.57232363       3.55937680
Cu       1.60847534       4.84300892       1.26958390
Cu       5.24375466       2.22464745       1.31403461
Cu       5.24375466       3.57232363       3.55937680
Cu       5.24375466       4.84300892       1.26958390
Cu       0.00000000      -2.23043489       5.96684247
Cu       6.85223000      -0.50555971       1.22796081
Cu       0.00000000       2.73599460       5.09118736
12
Lattice="4.98721 0.0 0.0 0.0 6.56727 0.0 0.0 -3.2836349999999985 5.687422653511431" Properties=species:S:1:pos:R:3 config_type=buildcell buildcell_config_i=51 RSS_min_vol_per_atom=7.0 buildcell_type=wide gap_rss_group=ALL gap_rss_iter=1 buildcell_symmetry="145 P3_2 P 32 @ 0.01" pbc="T T T"
Li       2.40528151       2.42086943       4.81204015
Li       0.74287785      -2.09414873       5.37793700
Li       4.06768468      -0.32672070       1.18486816
Cu       1.18004371       0.80256144       3.34492398
Cu       4.50485054      -0.01443486       4.70999926
Cu       2.84244737      -0.78812658       3.31992207
Cu       4.88983871       2.25409820       4.59048547
Cu       3.22743555      -1.81889113       5.34428623
Cu       1.56503238      -0.43520707       1.44007362
Cu       1.08609564       3.03225993       2.77836341
Cu       4.41090198       2.64500641       1.23683300
Cu       2.74849881       4.17363767       1.67222681
24
Lattice="6.8957 0.0 0.0 -3.4478499999999985 5.971851376876354 0.0 0.0 0.0 6.99599" Properties=species:S:1:pos:R:3 config_type=buildcell buildcell_config_i=52 RSS_min_vol_per_atom=7.0 buildcell_type=wide gap_rss_group=ALL gap_rss_iter=1 buildcell_symmetry="144 P3_1 P 31 @ 0.01" pbc="T T T"
Li       2.27604818       2.74763150       2.27100469
Li       3.37815688       0.59730039       4.60300113
Li       4.68934390       2.62692008      -0.06099174
Li       3.40526009       3.29475759       4.65673942
Li       2.33972618       1.30166295      -0.00725414
Li       4.59856373       1.37543084       2.32474229
Cu       3.00093279       5.09824835       1.85792436
Cu      -2.46782898       6.02161123       4.18992080
Cu      -0.53310381       0.82384317       6.52191723
Cu       4.79437334       3.85365361       2.57200087
Cu       1.16115141       2.22522230       4.90399800
Cu       4.38802525      -0.10702453       7.23599443
Cu      -0.07920160       2.88981770       3.08574580
Cu       0.98479526       4.45835193       5.41774223
Cu      -0.90559366       4.59553312       0.75374936
Cu      -2.58896057       4.99679794       6.24422540
Cu       0.41497633       1.23134678       1.58023183
Cu       2.17398424       5.71555803       3.91222827
Cu      -1.15785837       4.18990467       4.64072630
Cu       0.39821530       2.87416428       6.97272274
Cu       0.75964307       4.87963380       2.30872917
Cu       2.49568795       3.81213551       0.02295524
Cu       2.34644983       0.25526141       2.35495238
Cu       5.50141222       1.90445446       4.68694881
16
Lattice="4.44528 0.0 0.0 -1.2316667969335442 7.201067470238803 0.0 -1.606806422713997 -3.6005347081447456 8.064868797461623" Properties=species:S:1:pos:R:3 config_type=buildcell buildcell_config_i=53 RSS_min_vol_per_atom=7.0 buildcell_type=wide gap_rss_group=ALL gap_rss_iter=1 buildcell_symmetry="5 C2 C 2y @ 0.01" pbc="T T T"
Li       0.49550034       2.83408733       6.56628552
Li      -0.49549993      -2.83408963       6.56628552
Li       0.49548543       2.83407052       2.62490349
Li       2.71812789       4.36699632       2.62490349
Cu      -0.33330549      -1.10519266       4.51430628
Cu       0.33330569       1.10519157       4.51430628
Cu       0.77506713      -0.87821769       8.80246960
Cu      -0.77506674       0.87821556       8.80246960
Cu       3.29501767       5.62978296       0.54582709
Cu      -0.08140488       1.57128438       0.54582709
Cu       1.65618841      -1.67055081       6.05028796
Cu      -1.65618858       1.67054935       6.05028796
Cu       2.53337199       1.96561156       3.78368320
Cu       0.68024138       5.23545500       3.78368320
Cu      -1.08044652      -0.39384342       6.91075139
Cu       1.08044683       0.39384175       6.91075139
20
Lattice="3.83713 0.0 0.0 -1.7179109654974036 5.9257674922514285 0.0 -0.6061946047990415 -1.2045148017049778 10.429045197580944" Properties=species:S:1:pos:R:3 config_type=buildcell buildcell_config_i=54 RSS_min_vol_per_atom=7.0 buildcell_type=wide gap_rss_group=ALL gap_rss_iter=1 buildcell_symmetry="1 P1 P 1 @ 0.01" pbc="T T T"
Li      -2.51962992       3.43093514       8.84816777
Li       0.21450684       3.49799926       0.17243488
Li       3.09950753       0.25281243       5.61424079
Li       1.38173464       3.90638082       3.58228942
Li      -0.39148677       0.11431806       8.28822294
Cu      -0.60107404       2.50052829       7.54309374
Cu      -0.30449688       0.83675775       0.51599265
Cu       0.21451406       5.58383631       2.14246066
Cu       1.93244665       1.47535528       3.77223466
Cu      -1.70402853       6.26211088       3.21427032
Cu       1.61312751       1.79364732       1.35077202
Cu      -0.60696568       4.72618127       9.80406276
Cu       1.52698900       1.05209823       9.58780817
Cu       1.31746585       1.37214070       6.96374463
Cu      -0.30548827       2.47198794       2.42249721
Cu       2.13308098       4.62736784       1.30952515
Cu       1.74162614       3.83910124       6.41849329
Cu      -0.53692085       4.71228756       4.96759514
Cu       0.18538773       2.55628517       5.31305726
Cu       1.53975395      -1.11659723       7.23848636
8
Lattice="5.21359 0.0 0.0 -2.6067949999999986 4.515101384916512 0.0 0.0 0.0 5.71203" Properties=species:S:1:pos:R:3 config_type=buildcell buildcell_config_i=55 RSS_min_vol_per_atom=7.0 buildcell_type=wide gap_rss_group=ALL gap_rss_iter=1 buildcell_symmetry="143 P3 P 3 @ 0.01" pbc="T T T"
Li       0.00000000       0.00000000       5.22362516
Li      -0.00000026       3.01006774       4.24826862
Cu       1.25094122       3.89928445       2.27483708
Cu       0.14461378       1.48211228       2.27483708
Cu      -1.39555500       3.64880604       2.27483708
Cu       0.16705307       4.66986868       0.39829243
Cu       1.35390337       2.03549485       0.39829243
Cu      -1.52095644       2.32483925       0.39829243
12
Lattice="5.13996 0.0 0.0 -1.3171653780579673 4.9683260932073905 0.0 -1.9113961983646812 -2.484161600595831 8.177965558658352" Properties=species:S:1:pos:R:3 config_type=buildcell buildcell_config_i=56 RSS_min_vol_per_atom=7.0 buildcell_type=wide gap_rss_group=ALL gap_rss_iter=1 buildcell_symmetry="42 Fmm2 F 2 -2 @ 0.01" pbc="T T T"
Li       1.54936171       2.76272707       6.52175498
Li      -0.36203627       0.27856316       1.65621058
Li       1.31238012       2.94506671       0.00000000
Cu      -1.74444623       2.79324249       2.13082781
Cu      -1.23560345       3.45456415       6.04713775
Cu       1.48411647       0.30908014       6.04713775
Cu       1.99295858       0.97040091       2.13082781
Cu       3.03065728      -0.88087449       3.01733808
Cu       3.53949447      -0.21956010       5.16062748
Cu      -0.19790512       1.60328893       5.16062748
Cu       0.31093149       2.26460257       3.01733808
Cu       3.29374452       1.42053933       0.00000000
8
Lattice="3.59913 0.0 0.0 0.0 5.73791 0.0 0.0 -2.868954999999999 4.96917582462877" Properties=species:S:1:pos:R:3 config_type=buildcell buildcell_config_i=57 RSS_min_vol_per_atom=7.0 buildcell_type=wide gap_rss_group=ALL gap_rss_iter=1 buildcell_symmetry="176 P6_3/m -P 6c @ 0.01" pbc="T T T"
Li       0.69359122       2.86895529       1.65639178
Li       2.49315622      -0.00000029       3.31278405
Cu       2.49437453       2.49966426       3.35375639
Cu       2.49437453       4.52356053       1.12752488
Cu       2.49437453       1.58363935       0.48789505
Cu       0.69480953       0.36929074       1.61541943
Cu       0.69480953      -1.65460553       3.84165095
Cu       0.69480953       1.28531565       4.48128077
12
Lattice="4.89752 0.0 0.0 0.6910560579546328 5.8002177771497685 0.0 0.74916139692858 0.06273905130645484 6.073559040702015" Properties=species:S:1:pos:R:3 config_type=buildcell buildcell_config_i=58 RSS_min_vol_per_atom=7.0 buildcell_type=wide gap_rss_group=ALL gap_rss_iter=1 buildcell_symmetry="2 P-1 -P 1 @ 0.01" pbc="T T T"
Li       4.48233873       0.73424047       6.00441582
Li       1.85539873       5.12871636       0.06914322
Li       0.34552803       2.90010889       0.00000000
Cu       5.97822719       2.09126412       3.73394089
Cu       0.35951027       3.77169271       2.33961815
Cu       3.09322458       6.08979929       2.00307921
Cu       3.24451287      -0.22684246       4.07047983
Cu       2.37143666       3.11109304       1.44710440
Cu       3.96630079       2.75186378       4.62645464
Cu       2.21200180       4.06829683       3.94804660
Cu       4.12573566       1.79466000       2.12551244
Cu       5.27210070       0.03136953       3.03677952
16
Lattice="5.16885 0.0 0.0 2.44173402432074 6.592822063886939 0.0 2.584425830106673 -8.421120321116832e-07 6.80825565964416" Properties=species:S:1:pos:R:3 config_type=buildcell buildcell_config_i=59 RSS_min_vol_per_atom=7.0 buildcell_type=wide gap_rss_group=ALL gap_rss_iter=1 buildcell_symmetry="5 C2 C 2y @ 0.01" pbc="T T T"
Li       5.08690201       2.39411188       2.05962737
Li       2.52368251       4.19870968       2.05962737
Li       8.88389003       5.86174092       3.82170266
Li       3.89554441       0.73108020       3.82170266
Cu       2.66124466       1.70889353       1.87997181
Cu       4.94933982       4.88392807       1.87997181
Cu       6.98954392       4.27757708       6.53740419
Cu       5.78989170       2.31524337       6.53740419
Cu       3.73418007       0.21385526       0.50023114
Cu       3.87640459       6.37896668       0.50023114
Cu       7.88789995       3.67389964       4.50802998
Cu       4.89153518       2.91892131       4.50802998
Cu       6.68658627       4.66972754      -0.18005862
Cu       6.09284771       1.92309457      -0.18005862
Cu       6.78099865       1.74355042       3.92645312
Cu       5.99843633       4.84927067       3.92645312
