14
Lattice="3.52109 0.0 0.0 0.8661654801867716 7.687276215105895 0.0 0.5224329030607309 2.0993221726287765 10.475622146975745" Properties=species:S:1:pos:R:3 config_type=buildcell buildcell_config_i=20 RSS_min_vol_per_atom=10.0 buildcell_type=narrow_even gap_rss_group=ALL gap_rss_iter=1 buildcell_symmetry="2 P-1 -P 1 @ 0.01" pbc="T T T"
Li       2.54816845       0.91647783       4.00185737
Li       2.36151993       8.87012056       6.47376478
Li       2.34485461       7.60451318       9.09552912
Li       2.56483377       2.18208520       1.38009303
Li       4.12207917       9.54691553       8.40565911
Li       0.78760921       0.23968286       2.06996303
Li       1.49538935       3.16562943       9.98196474
Li       3.41429904       6.62096895       0.49365741
Li       1.32620984       6.17342704       4.09672041
Li       3.58347855       3.61317135       6.37890174
Li       0.80430168       4.22895063       1.35269928
Li       4.10538671       5.55764776       9.12292287
Li       4.14398395       3.08418438       3.79124812
Li       0.76570443       6.70241400       6.68437402
18
Lattice="6.12201 0.0 0.0 -1.9289407002778853 7.076469818377767 0.0 -2.076816329431189 -2.703457212831891 8.274070844015974" Properties=species:S:1:pos:R:3 config_type=buildcell buildcell_config_i=21 RSS_min_vol_per_atom=10.0 buildcell_type=narrow_even gap_rss_group=ALL gap_rss_iter=1 buildcell_symmetry="1 P1 P 1 @ 0.01" pbc="T T T"
Li       1.27728837       3.92732778      -0.34839630
Li       5.95301183       2.06871379       0.97213713
Li       3.09058151       0.55140721       0.88667177
Li       0.24212420       0.51752655       4.89436030
Li       1.96503939       5.33959301       2.07330592
Li       1.91181089       0.95960797       7.01334074
Li       2.63941746      -1.63989654       7.06675814
Li       3.42694322       3.19209752       1.33782707
Li      -2.38986649       0.03073214       5.24882811
Li       0.15516317       3.71084681       3.24011373
Li       3.73653681       2.64192984       5.93551311
Li       0.77455591      -0.22110474      -0.26621326
Li       1.85688176       1.62468392       3.03514266
Li       4.54924695       1.63618899       3.23766957
Li       0.72966354      -2.11856287       5.21502191
Li       0.05551180      -0.32005517       2.33437933
Li       0.51856223       2.99874472       5.92229694
Li       2.32268457       4.53219699       4.62479686
10
Lattice="4.84699 0.0 0.0 -0.5271628417474697 4.818237374640308 0.0 0.0 0.0 8.48567" Properties=species:S:1:pos:R:3 config_type=buildcell buildcell_config_i=22 RSS_min_vol_per_atom=10.0 buildcell_type=narrow_even gap_rss_group=ALL gap_rss_iter=1 buildcell_symmetry="36 Cmc2_1 C 2c -2 @ 0.01" pbc="T T T"
Li       1.40618693       4.95434535       1.48662998
Li       2.91364023      -0.13610798       5.72946498
Li      -0.45219062       2.88155313       5.72946498
Li       4.77201778       1.93668425       1.48662998
Li       3.22901484       1.58123372      -0.69866594
Li       1.09081231       3.23700365       3.54416906
Li       3.09916386       1.43640088       3.54416906
Li       1.22066329       3.38183649      -0.69866594
Li       3.64522221       4.06579830       8.75744819
Li       0.67460494       0.75243908       4.51461319
18
Lattice="7.10136 0.0 0.0 -0.6385763804935838 7.917690557623208 0.0 -3.231391381294568 -3.9588452728204238 6.67864768949243" Properties=species:S:1:pos:R:3 config_type=buildcell buildcell_config_i=23 RSS_min_vol_per_atom=10.0 buildcell_type=narrow_even gap_rss_group=ALL gap_rss_iter=1 buildcell_symmetry="5 C2 C 2y @ 0.01" pbc="T T T"
Li       1.78466789       3.56024024       4.17459159
Li       4.67811556       4.35745033       4.17459159
Li       1.13541640      -1.04714585       4.46744562
Li      -1.13541583       1.04714586       4.46744562
Li       5.65416447       3.21710851       0.31172388
Li       0.80861925       4.70058126       0.31172388
Li       3.76617107       1.33264827      -0.10508117
Li       2.69661253       6.58504229      -0.10508117
Li       1.15578547       0.69754102       0.16351667
Li       5.30699823       7.22014875       0.16351667
Li       4.16001758       7.40163251       2.60102272
Li       2.30276638       0.51605805       2.60102272
Li       4.38042236      -1.23241149       5.17274220
Li       2.72093831       1.23241150       5.17274220
Li       2.66823154       5.18576546       2.20813657
Li       3.79455171       2.73192431       2.20813657
Li      -1.12582265       5.41340342       2.05524697
Li       0.48724647       2.50428793       2.05524697
24
Lattice="6.72102 0.0 0.0 2.4929845999546627 6.690295829542136 0.0 1.2487400119910779 2.5288132325956534 10.480772970024761" Properties=species:S:1:pos:R:3 config_type=buildcell buildcell_config_i=24 RSS_min_vol_per_atom=10.0 buildcell_type=narrow_even gap_rss_group=ALL gap_rss_iter=1 buildcell_symmetry="1 P1 P 1 @ 0.01" pbc="T T T"
Li       2.18316786       4.16547451       5.02653155
Li       3.87793444       8.30555830       7.19384745
Li       6.62961440       7.09401945       4.81408524
Li       6.32369902       7.42036292       7.91793785
Li       2.98936434       4.96354656       2.57520243
Li       4.69177540       5.23424468       5.08764494
Li       2.54582918       2.90719444       9.26102061
Li       7.09903354       8.24843786      10.36804282
Li       6.02436780       2.80301772       8.43715115
Li      10.46131991       7.41251698      10.40347727
Li       4.10772998       3.04149583       6.55051455
Li       8.81206276       6.52329394       8.45946158
Li       5.99069830       0.62477950       0.84311320
Li       6.66290472       5.22307083       9.44967662
Li       7.08407932       4.96961476       3.20160259
Li       5.09833850       6.64607517       2.46937282
Li       8.98521314       5.19167848      10.82648441
Li       6.56876399       2.84494430       5.33318220
Li       2.54063634       6.84281351       5.36036409
Li       7.04222564       5.09668109       6.74576820
Li       4.75359145       4.16871236      11.04108767
Li       5.48744665       3.59491088       1.51315426
Li       4.23288133       2.90484447       3.80208276
Li       4.47551343       5.42477783       7.82895400
16
Lattice="6.94465 0.0 0.0 1.0354684264187994 6.867020369883125 0.0 1.0354684264187994 0.8910372499045363 6.808966248974388" Properties=species:S:1:pos:R:3 config_type=buildcell buildcell_config_i=25 RSS_min_vol_per_atom=10.0 buildcell_type=narrow_even gap_rss_group=ALL gap_rss_iter=1 buildcell_symmetry="146 R3 R 3 @ 0.01" pbc="T T T"
Li       2.85779040       4.79501254       0.65235684
Li       5.16751752       0.92074301       2.00840128
Li       1.68094321       2.63662979       4.66982805
Li       4.21705507       7.33003366       5.23015831
Li       7.87687181       5.58519965       2.37232759
Li       6.69723194       3.25486136       6.58942066
Li       8.26247778       5.45277375       6.68500629
Li       6.62378136       7.58311791       6.42747485
Li       8.48597721       7.07629397       4.53925591
Li       3.39504254       6.66393325       2.61879991
Li       7.09565273       2.90333608       2.00369288
Li       3.92886500       2.84099441       6.26779097
Li       5.32115777       4.98537750       1.74114391
Li       5.72305008       2.31270617       4.25421896
Li       3.14017813       4.90780880       4.71730697
Li       3.63727180       3.12993094       2.74702705
16
Lattice="7.47467 0.0 0.0 3.3507376068647274 6.681560379046382 0.0 3.3507376068647274 2.0681120238291104 6.35343700336565" Properties=species:S:1:pos:R:3 config_type=buildcell buildcell_config_i=26 RSS_min_vol_per_atom=10.0 buildcell_type=narrow_even gap_rss_group=ALL gap_rss_iter=1 buildcell_symmetry="146 R3 R 3 @ 0.01" pbc="T T T"
Li       7.52065592       7.50116408       5.21213290
Li      10.07659540       5.99619263       1.58175739
Li       9.87708491       3.46010513       5.51950392
Li       7.59011311       3.64363405       0.20938387
Li       6.65950983       1.79358673       4.83360148
Li       4.58859429       6.18993364       3.39988997
Li       8.60285072       3.52044839       3.13988191
Li       7.00338395       4.87747100       4.83987041
Li       7.49941054       5.86313840       2.37569051
Li       4.22499351       1.18022886       0.56204346
Li       2.94897501       1.53966377       2.91416971
Li       2.69825931       3.37335473       0.94830257
Li       5.32654021       4.76764590       1.20589187
Li       6.64954473       1.95890512       2.12200349
Li       4.73190421       3.58580325       4.16025850
Li       9.50375863       5.86582413       4.25937593
16
Lattice="6.73584 0.0 0.0 0.0 7.3116 0.0 0.0 -3.6557999999999984 6.332031342310303" Properties=species:S:1:pos:R:3 config_type=buildcell buildcell_config_i=27 RSS_min_vol_per_atom=10.0 buildcell_type=narrow_even gap_rss_group=ALL gap_rss_iter=1 buildcell_symmetry="168 P6 P 6 @ 0.01" pbc="T T T"
Li       3.47737403       2.20356050       1.54946580
Li       3.47737403       4.86794300       1.13360647
Li       3.47737403       3.89589649       3.64895907
Li       3.47737403       1.45223950       4.78256554
Li       3.47737403      -1.21214300       5.19842487
Li       3.47737403      -0.24009649       2.68307227
Li       6.16442657       2.31412432       1.33580660
Li       6.16442657       4.99769539       1.33618715
Li       6.16442657       3.65558029       3.66003759
Li       6.16442657       1.34167568       4.99622474
Li       6.16442657      -1.34189539       4.99584419
Li       6.16442657       0.00021971       2.67199375
Li       1.35119536      -1.82790000       3.16601567
Li       1.35119536       3.65580000       0.00000000
Li       1.35119536       1.82790000       3.16601567
Li       2.87067153       0.00000000       0.00000000
