22
Lattice="4.83956 0.0 0.0 0.9823690195010863 7.080042135921543 0.0 0.728627495896231 1.1728710392575226 7.431912077359027" Properties=species:S:1:pos:R:3 config_type=buildcell buildcell_config_i=90 RSS_min_vol_per_atom=6.0 buildcell_type=wide_even gap_rss_group=ALL gap_rss_iter=1 buildcell_symmetry="2 P-1 -P 1 @ 0.01" pbc="T T T"
Cu       3.10709911       5.38335923       4.86981613
Cu       3.44345740       2.86955394       2.56209595
Cu       0.85023436      -0.20279143       0.74808735
Cu       5.70032216       8.45570461       6.68382473
Cu       2.01608433       1.44564864       3.66915803
Cu       4.53447219       6.80726453       3.76275405
Cu       1.03692474       3.33867725       4.53386249
Cu       5.51363177       4.91423593       2.89804959
Cu       0.06556150       1.09463647       2.50199928
Cu       6.48499502       7.15827671       4.92991280
Cu       4.35044301       2.19387561       0.55934874
Cu       2.20011350       6.05903757       6.87256334
Cu       5.29021427       5.29657849       5.58882315
Cu       1.26034225       2.95633468       1.84308893
Cu       3.85651998       3.55875608       6.05262426
Cu       2.69403653       4.69415710       1.37928782
Cu       2.69278405       0.52495063       5.91543190
Cu       3.85777246       7.72796255       1.51648017
Cu       4.70996244       5.68528469       0.88570481
Cu       1.84059407       2.56762849       6.54620727
Cu       4.11191125       1.86352497       4.51937621
Cu       2.43864526       6.38938821       2.91253587
20
Lattice="5.38477 0.0 0.0 -0.35410634810094294 7.459940418651788 0.0 -1.7809648888659695 -3.3073624909229697 6.693444825339374" Properties=species:S:1:pos:R:3 config_type=buildcell buildcell_config_i=91 RSS_min_vol_per_atom=6.0 buildcell_type=wide_even gap_rss_group=ALL gap_rss_iter=1 buildcell_symmetry="1 P1 P 1 @ 0.01" pbc="T T T"
Cu       0.35201769       7.02881803       0.79729972
Cu       2.45914731      -0.92552016       5.13014192
Cu       0.51068042       1.85004646       1.90959362
Cu       1.90035421       5.50210709       0.04777045
Cu       2.73676952       1.27178635       1.91353071
Cu       4.42425271      -1.09468041       3.69406936
Cu      -0.40782801       5.18359646       1.94155281
Cu       4.40477534       1.06585144       0.34343396
Cu       2.15127536       1.12399966       4.13283002
Cu       0.47545822       2.65212196       4.51545544
Cu       2.14220478       3.07191874       6.08640761
Cu       0.58126682       3.67637912       0.51329552
Cu       0.68697597       4.74949251       5.43531950
Cu      -0.86321987      -1.52812950       5.95075224
Cu       1.67067543      -0.76494624       2.87651528
Cu       1.32800787       4.41305487       3.25222302
Cu      -1.66223383       3.51146010       4.47415488
Cu      -1.00023963       1.19809047       3.51645412
Cu       3.21358789       6.61406543       1.57390599
Cu       1.82972278       0.14930615       7.07054547
16
Lattice="4.74706 0.0 0.0 2.3735320264592112 6.6173737954170635 0.0 2.3735320264592112 1.4671254390241093 6.452687726400584" Properties=species:S:1:pos:R:3 config_type=buildcell buildcell_config_i=92 RSS_min_vol_per_atom=6.0 buildcell_type=wide_even gap_rss_group=ALL gap_rss_iter=1 buildcell_symmetry="24 I2_12_12_1 I 2b 2c @ 0.01" pbc="T T T"
Cu       4.49239179       4.51257367       3.78372638
Cu       7.37526226       3.39446398       2.89130096
Cu       4.49239326       7.61417519       5.89530521
Cu       2.62820079       0.64778564       0.33504290
Cu       5.44591430       3.94607211       1.67727551
Cu       6.42173976       5.57408976       2.97668679
Cu       3.07238559       6.71355131       1.54906835
Cu       4.04820846       5.08553365       0.24965707
Cu       6.54710055       7.30681305       4.52773612
Cu       5.32055350       2.04946482       0.33155458
Cu       6.54709947       4.81993580       5.15129547
Cu       5.32055459       1.99278480       2.89478928
Cu       8.67035310       6.75094364       3.83578667
Cu       3.19730095       2.84743454       0.72017931
Cu       8.67035270       5.37580522       5.84324492
Cu       3.19730135       1.19481508       2.50616455
16
Lattice="2.79624 0.0 0.0 -0.40627459358661944 8.182169701069883 0.0 -0.40627459358661944 -2.0886576826434506 7.911094115344635" Properties=species:S:1:pos:R:3 config_type=buildcell buildcell_config_i=93 RSS_min_vol_per_atom=6.0 buildcell_type=wide_even gap_rss_group=ALL gap_rss_iter=1 buildcell_symmetry="9 Cc C -2yc @ 0.01" pbc="T T T"
Cu       2.04942644       0.32834283       1.91611288
Cu       0.65130644       1.76881610       0.80658984
Cu       0.24921400       6.89405966       1.10584834
Cu       1.64733400      -0.69063105       6.94794847
Cu       0.26189498       4.11655513       0.64110162
Cu       1.66001498      -0.43096873       4.14382714
Cu       1.24481478       5.56147351       5.73231472
Cu      -0.15330522       4.12272882       6.84050632
Cu       1.24464103       2.30397470       6.77470342
Cu      -0.15347897       5.96212297       3.95701852
Cu       1.22842465       4.15930304       3.92600229
Cu      -0.16969535       2.73419082       5.02369349
Cu       2.04520012       2.86799218       2.24448736
Cu       0.64708012       1.43801673       3.34592447
Cu       1.65167367       5.31659090       1.99910500
Cu       0.25355367       0.57571153       5.65076241
24
Lattice="4.54507 0.0 0.0 0.8915082104172616 8.089976527361411 0.0 1.7388739443757755 2.1140628669515973 9.626449019500775" Properties=species:S:1:pos:R:3 config_type=buildcell buildcell_config_i=94 RSS_min_vol_per_atom=6.0 buildcell_type=wide_even gap_rss_group=ALL gap_rss_iter=1 buildcell_symmetry="1 P1 P 1 @ 0.01" pbc="T T T"
Cu       3.35106463       3.76224927       5.88775474
Cu       3.77205256       2.74646831       3.19479606
Cu       4.12636405       8.63753399       3.65150464
Cu       5.24382599       3.16295739       9.14553666
Cu       2.97132474       3.10877667       9.49594421
Cu       5.67734888       6.44931805       7.03650971
Cu       2.87886225       4.50479520       2.00241980
Cu       3.29082143       8.33285346       5.81512703
Cu       5.21880273       5.58438514       9.26552842
Cu       4.29545534       8.15885094       7.92729702
Cu       1.82403243       6.68298320       4.85550002
Cu       1.66558974       2.34250396       5.22938071
Cu       2.58014364       2.17425098       1.31257402
Cu       4.78767161       2.36775433       7.03614198
Cu       3.53844325       5.99411774       7.74913262
Cu       4.55045791       7.23983300       1.87335607
Cu       2.02292307       8.45379620       7.73197155
Cu       3.97005046       6.15880601       5.49566947
Cu       2.09798934       6.59138027       2.57372356
Cu       5.53379150       8.73677799       5.46830918
Cu       1.91937699       4.36619439       7.61181903
Cu       2.52114354       2.15985929       7.36712529
Cu       5.55747569       4.54363262       5.09419168
Cu       1.22948664       1.61998696       3.08981963
6
Lattice="2.83058 0.0 0.0 0.0 5.90172 0.0 0.0 -2.9508599999999987 5.111039446022699" Properties=species:S:1:pos:R:3 config_type=buildcell buildcell_config_i=95 RSS_min_vol_per_atom=6.0 buildcell_type=wide_even gap_rss_group=ALL gap_rss_iter=1 buildcell_symmetry="152 P3_121 P 31 2\" @ 0.01" pbc="T T T"
Cu       1.17980414      -1.25330667       3.98557783
Cu       2.12333100       0.12590169       2.03285512
Cu       0.23627757       1.12740498       4.20364595
Cu       1.65077586       4.07826498       0.90739350
Cu       0.70724900       1.69755333       1.12546162
Cu       2.59430243       3.07676169       3.07818433
20
Lattice="6.7774 0.0 0.0 2.747958514487418 6.195310707515492 0.0 2.747958514487418 1.78727727494133 5.931906498347256" Properties=species:S:1:pos:R:3 config_type=buildcell buildcell_config_i=96 RSS_min_vol_per_atom=6.0 buildcell_type=wide_even gap_rss_group=ALL gap_rss_iter=1 buildcell_symmetry="146 R3 R 3 @ 0.01" pbc="T T T"
Cu       8.26869067       7.25177507       5.39116339
Cu       9.98155910       6.49425355       2.86657958
Cu       9.98359679       4.61731714       5.38816363
Cu       4.08008914       0.72479495       1.00295489
Cu       2.31685390       1.95149881       3.00036898
Cu       2.72328029       3.25551628       0.40463788
Cu       7.04735824       3.00342647       2.94771738
Cu       5.60288728       4.32954654       4.15181254
Cu       6.22943723       4.94640739       2.02534745
Cu       5.21805778       1.38209124       3.13148785
Cu       3.37909684       4.21274460       3.12714035
Cu       5.22101096       3.39252449       0.41993034
Cu       3.95639865       2.57530046       4.63961160
Cu       3.95827396       5.18446394       1.12457083
Cu       6.34410505       1.51417083       1.12733154
Cu       8.06553116       3.10427922       5.00825408
Cu       6.10790559       6.55918297       4.40937177
Cu       8.47234156       5.06539369       1.52747067
Cu       7.81427367       5.08241798       3.77677368
Cu       1.83090521       1.19082412       0.88490817
22
Lattice="3.82379 0.0 0.0 -1.8438414030094705 7.458292411098405 0.0 0.0 0.0 9.81709" Properties=species:S:1:pos:R:3 config_type=buildcell buildcell_config_i=97 RSS_min_vol_per_atom=6.0 buildcell_type=wide_even gap_rss_group=ALL gap_rss_iter=1 buildcell_symmetry="13 P2/c -P 2yc @ 0.01" pbc="T T T"
Cu      -0.59146244       1.06351148       1.36646235
Cu       1.58143674       2.66563473       1.36646235
Cu       2.57141104       6.39478093       8.45062765
Cu       0.39851185       4.79265768       8.45062765
Cu       2.51971996      -0.65878351       7.21235783
Cu       2.29404434       4.38792972       7.21235783
Cu      -0.53977136       8.11707592       2.60473217
Cu      -0.31409574       3.07036270       2.60473217
Cu       1.28117638       6.72551145       2.79886610
Cu       1.68874651       4.46192716       2.79886610
Cu       0.69877222       0.73278096       7.01822390
Cu       0.29120208       2.99636525       7.01822390
Cu       0.52901812       4.95447205       5.83536763
Cu      -1.38288522       6.23296657       5.83536763
Cu       1.45093048       2.50382036       3.98172237
Cu       3.36283382       1.22532584       3.98172237
Cu       2.58962922       6.41279196       0.93337848
Cu       0.38029368       4.77464665       0.93337848
Cu      -0.60968062       1.04550045       8.88371152
Cu       1.59965492       2.68364576       8.88371152
Cu       2.40688215       1.86457310       5.97357164
Cu      -0.42693355       5.59371931       3.84351836
20
Lattice="3.84359 0.0 0.0 -0.4495963694709026 6.217034501871337 0.0 -1.0651285284491363 -3.0175359759065343 11.945656509275395" Properties=species:S:1:pos:R:3 config_type=buildcell buildcell_config_i=98 RSS_min_vol_per_atom=6.0 buildcell_type=wide_even gap_rss_group=ALL gap_rss_iter=1 buildcell_symmetry="1 P1 P 1 @ 0.01" pbc="T T T"
Cu       2.22267747       0.40374925       2.11288322
Cu       0.29046580       1.73329511       9.65368520
Cu      -0.15428421       0.27352516       7.93283693
Cu       1.24608086      -2.22824404       9.49442810
Cu       0.30099910       1.52704826       2.69582409
Cu       2.97255634       2.34477902       4.50362957
Cu       0.66544806       3.16336550       6.62512680
Cu       1.72520446       4.67025770       0.89300591
Cu       2.20320770       0.45618671       9.67876033
Cu      -0.67574101       3.57378623       2.30952664
Cu       2.56437175       1.86886087       6.71651944
Cu       1.24597808       3.54595557       3.57303784
Cu       2.78097980      -0.36074910       4.91846758
Cu      -0.63479664      -1.42241403      10.54466752
Cu       0.05269745       3.29624813       0.11530784
Cu       1.98285824       2.11238898       0.59202674
Cu       1.04892196       1.15242310       4.93015282
Cu       3.96852209       0.54310716       0.62205931
Cu       0.16161806       5.56399119       3.36838247
Cu       2.21227178       2.55979519      10.60960172
16
Lattice="2.85803 0.0 0.0 -1.309972149775641 7.131637180151005 0.0 0.0 0.0 10.74204" Properties=species:S:1:pos:R:3 config_type=buildcell buildcell_config_i=99 RSS_min_vol_per_atom=6.0 buildcell_type=wide_even gap_rss_group=ALL gap_rss_iter=1 buildcell_symmetry="4 P2_1 P 2yb @ 0.01" pbc="T T T"
Cu      -0.17891819       3.87830910       8.12159991
Cu       1.72697604       3.25332808       2.75057991
Cu       1.57350285       6.37151520       4.15466121
Cu      -0.02544500       0.76012198       9.52568121
Cu       1.22744102       4.53082324       6.42262490
Cu       0.32061683       2.60081394       1.05160490
Cu       0.39596990       1.48090942       7.19187097
Cu       1.15208795       5.65072776       1.82085097
Cu       1.79718764       1.56690056       4.32008863
Cu      -0.24912979       5.56473662       9.69110863
Cu      -0.24678730       6.35868324       6.20720188
Cu       1.79484515       0.77295394       0.83618188
Cu       1.29085553       2.64568834       9.47932179
Cu       0.25720232       4.48594884       4.10830179
Cu       0.36645144       0.92965954       2.63206083
Cu       1.18160641       6.20197764       8.00308083
