8
Lattice="4.38263 0.0 0.0 0.09209292934416237 5.442350878918486 0.0 0.7430911618567777 1.491691210253763 5.846632765833853" Properties=species:S:1:pos:R:3 config_type=buildcell buildcell_config_i=60 RSS_min_vol_per_atom=9.0 buildcell_type=narrow gap_rss_group=ALL gap_rss_iter=1 buildcell_symmetry="1 P1 P 1 @ 0.01" pbc="T T T"
Li       1.29019530       6.15498914       4.23595911
Li       2.16708807       3.73047448       2.95185146
Li       4.31097629       4.44263592       1.16747609
Li       3.38945981       1.88085700       5.29593024
Li       2.12809815       3.27934100       0.08493286
Li       0.56489169       1.89153008       1.79382762
Cu       0.45503154       1.58512257      -0.68486170
Cu       3.48151030       5.85364977       3.07094912
24
Lattice="5.35237 0.0 0.0 0.0 7.82301 0.0 0.0 -0.11284127739611696 10.463831581199862" Properties=species:S:1:pos:R:3 config_type=buildcell buildcell_config_i=61 RSS_min_vol_per_atom=9.0 buildcell_type=narrow gap_rss_group=ALL gap_rss_iter=1 buildcell_symmetry="7 Pc P -2yc @ 0.01" pbc="T T T"
Li       5.07261125       0.09978376       6.29423746
Li       0.27975875       0.15620440       1.06232167
Li       1.21753625       4.29843904       4.32109471
Li       4.13483375       4.24201840       9.55301050
Li       3.66620699       6.12866447       1.06991108
Li       1.68616301       6.07224383       6.30182687
Li       1.63753405       2.21975114       7.36195323
Li       3.71483595       2.27617177       2.13003744
Li       2.02320764       0.51354723       4.86406921
Li       3.32916236       0.45712659      10.09598500
Li       0.79320143       0.04260742       8.87549729
Li       4.55916857       0.09902806       3.64358150
Li       3.50366997       4.14083260       6.80767256
Li       1.84870003       4.19725324       1.57575677
Li       4.11137431       5.40034740       4.49811344
Li       1.24099569       5.34392676       9.73002923
Li       4.40251808       1.96431175       8.12838285
Li       0.94985192       2.02073239       2.89646706
Cu       2.45475317       7.94054363       2.29425576
Cu       2.89761683       7.88412299       7.52617156
Cu       3.13396518       2.75164217       4.75882399
Cu       2.21840482       2.69522153       9.99073978
Cu       4.36523936       6.17286451       7.98182224
Cu       0.98713064       6.22928515       2.74990645
12
Lattice="6.19587 0.0 0.0 -1.0029986385702532 6.114147429358097 0.0 -1.0029986385702532 -1.1809423189669646 5.999014421319485" Properties=species:S:1:pos:R:3 config_type=buildcell buildcell_config_i=62 RSS_min_vol_per_atom=9.0 buildcell_type=narrow gap_rss_group=ALL gap_rss_iter=1 buildcell_symmetry="146 R3 R 3 @ 0.01" pbc="T T T"
Li       4.27873486       1.37692441       3.26973641
Li       2.21075690       4.69858986       1.98254289
Li       0.66611365       2.34957917       4.99303909
Li      -0.02783191       4.99231872       0.50185115
Li      -0.46113182      -0.10385054       4.99524253
Li       4.93097629       0.34160932       0.86293183
Li       1.81463879       0.32579704       3.60638911
Li       3.13595226       2.35333251       1.01623304
Li       0.02774282       3.18241893       2.50530240
Cu       3.15235221       2.53412247       5.17883397
Cu       4.02097562       3.85411014       3.48669077
Cu       1.99038931       4.40123505       4.45498629
12
Lattice="2.91353 0.0 0.0 1.1182048693832047 8.153368344812325 0.0 0.202274150841537 0.7278737970236169 8.89834898355351" Properties=species:S:1:pos:R:3 config_type=buildcell buildcell_config_i=63 RSS_min_vol_per_atom=9.0 buildcell_type=narrow gap_rss_group=ALL gap_rss_iter=1 buildcell_symmetry="1 P1 P 1 @ 0.01" pbc="T T T"
Li       1.22978909       5.45130918       3.99719175
Li      -0.05297345       1.58296516       1.23599313
Li       2.68654167       6.22126700       1.85828760
Li       1.28986118       3.93606742       1.47893586
Li       2.68654651       3.28193625       4.67658693
Li       3.40202352       6.02713372       8.27141937
Li       2.68721331       6.83964350       5.79779759
Li       1.23363481       3.82958341       6.89104874
Li       1.40942776       0.41197516       3.18867531
Cu       1.26297393       8.20942151       7.32921768
Cu       2.86620467       0.83875149       5.17505375
Cu       2.71341377       8.74922244       9.03063451
8
Lattice="4.85341 0.0 0.0 -2.4267049999999992 4.203176354981433 0.0 0.0 0.0 7.1851" Properties=species:S:1:pos:R:3 config_type=buildcell buildcell_config_i=64 RSS_min_vol_per_atom=9.0 buildcell_type=narrow gap_rss_group=ALL gap_rss_iter=1 buildcell_symmetry="189 P-62m P -6 -2 @ 0.01" pbc="T T T"
Li       0.68338197       4.20317888       0.42235742
Li       0.87166370       1.50976077       0.42235742
Li      -1.55504567       2.69341306       0.42235742
Li       1.73428234       0.00443141       4.01487796
Li       1.56340154       2.69902808       4.01487796
Li       3.98243112       1.49971686       4.01487796
Cu       0.00000000       0.00000000       2.21421646
Cu       0.00000000       0.00000000       5.81560198
24
Lattice="6.63465 0.0 0.0 -1.0929867382785179 7.973284744222251 0.0 -1.0929867382785179 -0.8895635022185365 7.923505940426118" Properties=species:S:1:pos:R:3 config_type=buildcell buildcell_config_i=65 RSS_min_vol_per_atom=9.0 buildcell_type=narrow gap_rss_group=ALL gap_rss_iter=1 buildcell_symmetry="8 Cm C -2y @ 0.01" pbc="T T T"
Li      -1.14918150       4.85207422       2.28779111
Li      -1.14918150       1.73217172       5.07702605
Li      -1.45254648       4.52896353       7.06370175
Li      -1.45254648       6.51431421       5.28877144
Li       1.49171272      -0.45380440       1.50475539
Li       1.49171272       1.54599096      -0.28308864
Li       1.27837565       3.73434980       2.15934395
Li       1.27837565       1.72922876       3.95194922
Li       2.07871163      -0.72950076       6.10060673
Li       2.07871163       6.14390838      -0.04431379
Li       4.93971539       2.16675618       8.28845945
Li       4.93971539       7.99497228       3.07795561
Li       4.56725892      -0.06558428       6.83704194
Li       4.56725892       6.80167403       0.69762033
Li       0.73069032       5.47901489       4.10974267
Li       0.73069032       3.47280195       5.90332411
Li       3.48742159       0.75833845       2.83763330
Li       3.48742159       2.73531108       1.07019308
Cu       3.53394035       3.23588379       5.31980623
Cu       3.53394035       4.92557251       3.80920171
Cu       2.36295541       6.28465986       2.40847403
Cu       2.36295541       1.69227046       6.51413213
Cu       2.87650214       3.72228270       7.45456909
Cu       2.87650214       6.99274106       4.53073518
16
Lattice="6.48078 0.0 0.0 -1.324759137555221 6.3439358946843045 0.0 -2.5780112567962647 -3.1719689631230965 7.255438830065038" Properties=species:S:1:pos:R:3 config_type=buildcell buildcell_config_i=66 RSS_min_vol_per_atom=9.0 buildcell_type=narrow gap_rss_group=ALL gap_rss_iter=1 buildcell_symmetry="70 Fddd F 2 2 -1d @ 0.01" pbc="T T T"
Li       3.00810714       1.89078815       2.67908820
Li       2.14791311       4.45314700       2.67908820
Li       1.34204397      -0.15912558       4.57635063
Li      -1.34204501       0.15912430       4.57635063
Li      -1.09247669       4.45314724       0.94863121
Li      -0.23228266       1.89078839       0.94863121
Li      -2.00442478       3.33109201       6.30680762
Li       0.67966420       3.01284212       6.30680762
Li       0.38926187       2.31724769       3.62771942
Li      -1.71402183       4.02668719       3.62771942
Li       1.05164102      -0.85472077       7.25543883
Li       1.52636858       4.02668770       0.00000000
Cu       2.90919960       1.58598321       5.44157912
Cu       1.62019479      -0.00000025       1.81385971
Cu       4.86058479      -0.00000025       1.81385971
Cu       3.57157917      -1.58598474       5.44157912
20
Lattice="5.38857 0.0 0.0 0.029089097442688457 7.975666952851653 0.0 1.2706973924611547 1.9206494130777279 8.675892678245658" Properties=species:S:1:pos:R:3 config_type=buildcell buildcell_config_i=67 RSS_min_vol_per_atom=9.0 buildcell_type=narrow gap_rss_group=ALL gap_rss_iter=1 buildcell_symmetry="1 P1 P 1 @ 0.01" pbc="T T T"
Li       6.82303410       6.14328275       8.30284057
Li       4.73408609       3.87069181       2.17578982
Li       2.69775902       8.52923086       8.26650073
Li       3.96035475       5.25579834       8.73950346
Li       2.38359456       5.39533153       5.27335506
Li       1.02395172       1.42157060       4.01923482
Li       3.84531519       1.53101682       3.19012574
Li       2.22544127       3.69109387       3.18516139
Li       5.32216483       8.37510206       7.65113528
Li       3.63918466       8.49071597       0.69966129
Li       2.42981593       7.22543175       3.19599498
Li       6.09773977       3.72710486       7.34053832
Li       6.00573366       1.74455210       1.10073913
Li       3.10043914       9.49308003       5.77676592
Li       4.50123040       3.72396367       5.16312264
Cu       3.17512351       3.12960889       7.68465199
Cu       1.39944685       7.64050438       5.76390912
Cu       1.19945372       5.52633380       1.83267735
Cu       4.65202111       7.73196328       4.87808660
Cu       3.92370922       6.12147820       1.44967052
20
Lattice="3.33705 0.0 0.0 -0.36837071769123936 9.202149838203443 0.0 -0.2117315643759436 -0.1740527853619467 11.663389913085075" Properties=species:S:1:pos:R:3 config_type=buildcell buildcell_config_i=68 RSS_min_vol_per_atom=9.0 buildcell_type=narrow gap_rss_group=ALL gap_rss_iter=1 buildcell_symmetry="1 P1 P 1 @ 0.01" pbc="T T T"
Li       2.05172359       7.77692888       3.76745456
Li       0.30143644       0.90953318       2.67091979
Li       1.36842724       1.35899838       7.01861633
Li       2.59753265       8.61135659       8.72027693
Li      -0.05679694       7.49145848      -0.62066729
Li       1.36839578       2.89852924      10.37350880
Li       1.88768769       5.31952661       0.17516895
Li       0.29975124       3.93480512       5.65066748
Li       1.88771572       5.04983274       3.66894090
Li       1.96826740       2.40057875       4.18366146
Li       0.16693438       3.51932427       1.84019718
Li       3.24865022       1.42583435       0.04958574
Li       0.21917400       6.37952824       2.01427210
Li       1.97028773      -0.64283299       1.22275597
Li      -0.70504683       6.41288553       6.02414439
Cu      -0.16360112       4.75227849       9.67546424
Cu      -0.30011527       1.90698324       8.79784080
Cu       1.11374894       6.19925274       8.41543907
Cu       0.02073785       0.46074369       5.11422153
Cu       0.96347329       8.04817130       6.91400389
8
Lattice="4.26462 0.0 0.0 1.6883773145891943 5.448404548460089 0.0 1.219827141162507 1.5127626987670333 6.516929569429333" Properties=species:S:1:pos:R:3 config_type=buildcell buildcell_config_i=69 RSS_min_vol_per_atom=9.0 buildcell_type=narrow gap_rss_group=ALL gap_rss_iter=1 buildcell_symmetry="1 P1 P 1 @ 0.01" pbc="T T T"
Li       1.94903274       1.60813143       3.66199176
Li       4.20468590       0.93434233       1.98266112
Li       2.07288570       2.31088426       1.05460734
Li       2.69048416       4.11856144       3.00023862
Li       4.20236510       2.97235566      -0.46779563
Li       6.16511957       4.81932501      -0.30587730
Cu       3.89510451       2.91824411       4.83965372
Cu       2.28750877      -0.39246646       1.06769725
