20
Lattice="3.04613 0.0 0.0 -0.3859924991659106 7.402403193705924 0.0 0.0 0.0 10.98669" Properties=species:S:1:pos:R:3 config_type=buildcell buildcell_config_i=80 RSS_min_vol_per_atom=6.0 buildcell_type=narrow_even gap_rss_group=ALL gap_rss_iter=1 buildcell_symmetry="11 P2_1/m -P 2yb @ 0.01" pbc="T T T"
Cu       1.34093187       7.50723011       1.60423692
Cu       1.31920563      -0.10482691       7.09758192
Cu       1.31920563      -0.10482691       9.38245308
Cu       1.34093187       7.50723011       3.88910808
Cu       1.33651298       5.67477852      10.92950428
Cu       1.32362452       1.72762467       5.43615928
Cu       1.32362452       1.72762467       0.05718572
Cu       1.33651298       5.67477852       5.55053072
Cu      -0.18656008       5.79836904       3.87420683
Cu       2.84669758       1.60403415       9.36755183
Cu       2.84669758       1.60403415       7.11248317
Cu      -0.18656008       5.79836904       1.61913817
Cu       1.32815321       3.31610490       7.09186115
Cu       1.33198429       4.08629830       1.59851615
Cu       1.33198429       4.08629830       3.89482885
Cu       1.32815321       3.31610490       9.38817385
Cu      -0.19048434       5.02495633       7.10788854
Cu       2.85062184       2.37744686       1.61454354
Cu       2.85062184       2.37744686       3.87880146
Cu      -0.19048434       5.02495633       9.37214646
12
Lattice="4.8044 0.0 0.0 0.0 6.08994 0.0 0.0 -3.044969999999999 5.274042747523006" Properties=species:S:1:pos:R:3 config_type=buildcell buildcell_config_i=81 RSS_min_vol_per_atom=6.0 buildcell_type=narrow_even gap_rss_group=ALL gap_rss_iter=1 buildcell_symmetry="144 P3_1 P 31 @ 0.01" pbc="T T T"
Cu       0.30525668       0.89762579       2.50756630
Cu       1.90672319       0.42454098       4.79762634
Cu       3.50819018      -1.32216678       3.24289286
Cu       1.94278790       2.76027748       3.50093278
Cu       3.54425440       1.67790484       0.64000351
Cu       0.34132091       4.69672859       1.13310593
Cu       1.00989833      -1.54755941       5.57983544
Cu       2.61136484      -1.01352953       1.14389926
Cu       4.21283135       2.56108895       3.82435080
Cu       2.61623938       0.73981748       2.63246038
Cu       4.21770637       0.39528369       4.59851329
Cu       1.01477288      -1.13510118       3.31711182
12
Lattice="3.45683 0.0 0.0 -0.9725693137070146 4.866783043257164 0.0 -1.5700948010165208 -0.3898591754169391 8.523734683175217" Properties=species:S:1:pos:R:3 config_type=buildcell buildcell_config_i=82 RSS_min_vol_per_atom=6.0 buildcell_type=narrow_even gap_rss_group=ALL gap_rss_iter=1 buildcell_symmetry="1 P1 P 1 @ 0.01" pbc="T T T"
Cu      -1.01480838       3.52308181       2.88218411
Cu      -1.13227279       4.90780257       8.11399876
Cu       2.78877658       1.64589122       0.98091650
Cu       0.83013021       2.42949075       4.10524286
Cu       1.06914289       2.93074711       0.13226109
Cu      -1.13177588       2.99643999       5.75864282
Cu       2.55855403       1.19398689       3.22429954
Cu       1.55116143       1.40500953       7.23238462
Cu       0.59625191       3.99572776       6.90113013
Cu      -0.18238093       0.90149532       5.76036547
Cu       0.71179715       4.53142450       1.74549124
Cu       1.50915951      -0.23276458       4.69165280
12
Lattice="3.97367 0.0 0.0 0.767924842935136 5.227102384658545 0.0 0.3531269127235717 2.4630549336489964 6.857846882756836" Properties=species:S:1:pos:R:3 config_type=buildcell buildcell_config_i=83 RSS_min_vol_per_atom=6.0 buildcell_type=narrow_even gap_rss_group=ALL gap_rss_iter=1 buildcell_symmetry="1 P1 P 1 @ 0.01" pbc="T T T"
Cu       3.20127106       4.32691578       1.13826680
Cu       1.61834049       4.46636724       2.80106013
Cu       3.88843352       7.68067282       5.90205916
Cu       3.40229690       3.47299269       3.85967372
Cu       1.42091570       1.13430164       0.51688209
Cu       3.80291779       4.54678270       6.56752405
Cu       4.52014066       5.81105685       4.72078544
Cu       1.56038769       1.75499501       3.85842010
Cu       4.47166097       2.61966126       2.01081672
Cu       1.36399699       3.69199472       5.08294353
Cu       3.92644687       6.02540885       2.50909690
Cu       1.00887300       1.27732934       6.56483852
16
Lattice="4.06267 0.0 0.0 0.0 7.23072 0.0 0.0 -3.615359999999998 6.261987207652218" Properties=species:S:1:pos:R:3 config_type=buildcell buildcell_config_i=84 RSS_min_vol_per_atom=6.0 buildcell_type=narrow_even gap_rss_group=ALL gap_rss_iter=1 buildcell_symmetry="143 P3 P 3 @ 0.01" pbc="T T T"
Cu       0.35757468       6.66594148       2.30975026
Cu       0.35757468       1.89744686       4.61799953
Cu       0.35757468       2.28269167      -0.66576258
Cu       2.89797401      -1.29309135       3.87251433
Cu       2.89797401       0.90820989       3.20588008
Cu       2.89797401       0.38488146       5.44558000
Cu       1.90578956       2.28751239       6.27353870
Cu       1.90578956      -2.96144008       5.10626170
Cu       1.90578956       0.67392769       1.14417402
Cu       1.02985637       3.92605464       0.79620917
Cu       1.02985637       4.57815531       3.00195847
Cu       1.02985637       2.34187005       2.46381957
Cu       3.16469358       3.38710931       3.39546613
Cu       3.16469358       2.59660542       1.23558964
Cu       3.16469358       4.86236527       1.63093144
Cu      -0.23611222       0.00000000       0.00000000
12
Lattice="3.77262 0.0 0.0 0.0 6.70778 0.0 0.0 -3.3538899999999985 5.809107882997183" Properties=species:S:1:pos:R:3 config_type=buildcell buildcell_config_i=85 RSS_min_vol_per_atom=6.0 buildcell_type=narrow_even gap_rss_group=ALL gap_rss_iter=1 buildcell_symmetry="143 P3 P 3 @ 0.01" pbc="T T T"
Cu       0.21065933       0.25305905       2.56917323
Cu       0.21065933       1.00239119       4.74367683
Cu       0.21065933      -1.25545024       4.30536570
Cu       2.09696556       2.29027623       5.01409197
Cu       2.09696556      -2.13357947       5.28549988
Cu       2.09696556      -0.15669777       1.31862450
Cu       3.63402149       4.84803626       1.15409140
Cu       3.63402149       3.28428940       3.62147686
Cu       3.63402149       1.92934434       1.03353963
Cu       2.16496439       1.64098795       2.80868042
Cu       2.16496439       0.10100743       5.82590492
Cu       2.16496439      -1.74199537       2.98363042
24
Lattice="4.8641 0.0 0.0 0.0 7.68607 0.0 -2.432048844427613 0.0 8.061217180321984" Properties=species:S:1:pos:R:3 config_type=buildcell buildcell_config_i=86 RSS_min_vol_per_atom=6.0 buildcell_type=narrow_even gap_rss_group=ALL gap_rss_iter=1 buildcell_symmetry="20 C222_1 C 2c 2 @ 0.01" pbc="T T T"
Cu       1.77901344       3.21627288       3.35103025
Cu       0.65303772       7.05930788       4.71018693
Cu       3.08508752       0.62676212       3.35103025
Cu      -0.65303637       4.46979712       4.71018693
Cu       1.33998656       1.56113612       4.88647205
Cu       1.09206460       5.40417112       3.17474513
Cu       3.52411484       2.28189888       4.88647205
Cu      -1.09206369       6.12493388       3.17474513
Cu       1.12185788       4.37675109       6.16998147
Cu       1.31019327       0.53371609       1.89123571
Cu      -1.12185611       7.15235391       6.16998147
Cu       3.55390727       3.30931891       1.89123571
Cu       4.02656224       1.13352469       1.31466763
Cu      -1.59451108       4.97655969       6.74654955
Cu       0.83753814       2.70951031       1.31466763
Cu       1.59451302       6.55254531       6.74654955
Cu      -0.52094874       2.95078373       6.92891040
Cu       2.95299989       6.79381873       1.13230678
Cu       0.52095072       0.89225127       6.92891040
Cu       1.91110043       4.73528627       1.13230678
Cu       0.79982264       1.09535490      -0.34994147
Cu       1.63222852       4.93838990       8.41115865
Cu       4.06427726       2.74768010      -0.34994147
Cu      -1.63222610       6.59071510       8.41115865
24
Lattice="5.50197 0.0 0.0 -2.7509849999999987 4.7648457908598685 0.0 0.0 0.0 11.17621" Properties=species:S:1:pos:R:3 config_type=buildcell buildcell_config_i=87 RSS_min_vol_per_atom=6.0 buildcell_type=narrow_even gap_rss_group=ALL gap_rss_iter=1 buildcell_symmetry="173 P6_3 P 6c @ 0.01" pbc="T T T"
Cu       3.59033281       2.61726833       4.44081228
Cu       1.44018274       1.80068526       4.44081228
Cu       3.22243946       0.34689221       4.44081228
Cu      -0.83934781       2.14757746      10.02891728
Cu       1.31080226       2.96416054      10.02891728
Cu      -0.47145446       4.41795358      10.02891728
Cu      -1.44018356       4.55244517       3.29068527
Cu      -0.47145638       1.24138766       3.29068527
Cu       1.91163994       3.73585876       3.29068527
Cu       4.19116856       0.21240062       8.87879027
Cu       3.22244138       3.52345813       8.87879027
Cu       0.83934506       1.02898703       8.87879027
Cu       1.86687014       3.72287122       5.62984256
Cu      -1.40655085       4.52016667       5.62984256
Cu      -0.46031847       1.28665321       5.62984256
Cu       0.88411486       1.04197457      11.21794756
Cu       4.15753585       0.24467912      11.21794756
Cu       3.21130347       3.47819258      11.21794756
Cu       3.22243670       0.34688935       2.14056497
Cu       3.59033638       2.61726785       2.14056497
Cu       1.44018109       1.80068907       2.14056497
Cu      -0.47145170       4.41795644       7.72866997
Cu      -0.83935138       2.14757794       7.72866997
Cu       1.31080391       2.96415672       7.72866997
