8
Lattice="4.95321 0.0 0.0 0.0 6.25475 0.0 0.0 -3.1273749999999985 5.416772394320718" Properties=species:S:1:pos:R:3 config_type=buildcell buildcell_config_i=70 RSS_min_vol_per_atom=9.0 buildcell_type=wide gap_rss_group=ALL gap_rss_iter=1 buildcell_symmetry="147 P-3 -P 3 @ 0.01" pbc="T T T"
Li       3.58511705       2.23624107       3.08481667
Li       3.58511705       2.46509987       0.39423324
Li       3.58511705       4.68078407       1.93772249
Li       1.36809295       0.89113393       2.33195572
Li       1.36809295       0.66227513       5.02253916
Li       1.36809295      -1.55340907       3.47904991
Cu       3.71849016       0.00000000       0.00000000
Cu       1.23471984       0.00000000       0.00000000
16
Lattice="4.6137 0.0 0.0 0.0 8.8196 0.0 0.0 -4.409799999999998 7.637997651217236" Properties=species:S:1:pos:R:3 config_type=buildcell buildcell_config_i=71 RSS_min_vol_per_atom=9.0 buildcell_type=wide gap_rss_group=ALL gap_rss_iter=1 buildcell_symmetry="143 P3 P 3 @ 0.01" pbc="T T T"
Li       0.87865287       1.26761597       0.90726046
Li       0.87865287       7.40008141       0.64415741
Li       0.87865287       4.56170262       6.08657979
Li       3.88913272       1.25565924       4.16689969
Li       3.88913272       0.17332983       6.64197984
Li       3.88913272      -1.42898775       4.46711501
Li       2.09119413      -2.53457753       2.78336731
Li       2.09119413       3.26662197       4.05130547
Li       2.09119413      -0.73204444       8.44132253
Li       1.58203958      -1.66180094       5.85115913
Li       1.58203958       0.17344802       3.27325626
Li       1.58203958       1.48835292       6.15157991
Cu       3.68825960      -0.46198035       2.08579356
Cu       3.68825960       2.83444040       6.19501339
Cu       3.68825960      -2.37245873       6.99518759
Cu       2.83341389       0.00000000       0.00000000
24
Lattice="5.7576 0.0 0.0 1.8757061717905563 6.630849013415011 0.0 1.5408872382228358 2.410587699777871 10.865539910784996" Properties=species:S:1:pos:R:3 config_type=buildcell buildcell_config_i=72 RSS_min_vol_per_atom=9.0 buildcell_type=wide gap_rss_group=ALL gap_rss_iter=1 buildcell_symmetry="1 P1 P 1 @ 0.01" pbc="T T T"
Li       6.34946771       2.02085184       3.76700771
Li       0.83248701       0.32669673       0.37653007
Li       4.27410554       2.11467167       2.04245530
Li       5.52926063       5.87948585       8.84401708
Li       2.94244349       6.28215777       7.32870671
Li       3.37223907       7.15716314       9.84651090
Li       1.66347581       2.05132829       6.24537109
Li       3.47962604       3.96603389       8.70008018
Li       5.66687451       5.05013679       4.29890197
Li       3.44659558       4.10949606       5.80711062
Li       4.87616434       2.23859826       7.12849501
Li       5.66246825       7.05811747      11.27295963
Li       4.60466300       6.54887031       2.32022305
Li       7.78795562       6.10026929       2.99960723
Li       3.82690856       1.68909890       4.67111082
Li       1.84311774       2.73893485       1.04713816
Li       6.72174816       3.01903157       8.95615923
Li       6.67121635       4.59291204       6.76300758
Cu       6.46954998       4.96272373       1.20584241
Cu       5.26694756       6.64782945       6.47925075
Cu       5.34084788       2.42330380      -0.19736710
Cu       2.43465815       3.69732497       3.55847084
Cu       7.06743258       9.15464812      10.87020666
Cu       3.79145248       6.65943334       4.68369311
24
Lattice="6.32942 0.0 0.0 0.0 8.9609 0.0 0.0 -3.8111810571180964 9.330094214972547" Properties=species:S:1:pos:R:3 config_type=buildcell buildcell_config_i=73 RSS_min_vol_per_atom=9.0 buildcell_type=wide gap_rss_group=ALL gap_rss_iter=1 buildcell_symmetry="4 P2_1 P 2yb @ 0.01" pbc="T T T"
Li       4.63751097       0.51914024       5.27594342
Li       1.47280097       4.63057870       4.05415079
Li      -0.08109063       1.81057578       0.43193391
Li       3.08361937       3.33914316       8.89816030
Li       2.48108200       1.43168832       1.19461687
Li       5.64579200       3.71803062       8.13547735
Li       1.41127837       2.46648658       6.96641561
Li       4.57598837       2.68323236       2.36367860
Li       3.77503129      -0.56512924       7.59340914
Li       0.61032129       5.71484818       1.73668508
Li       0.47206903       5.84745482       6.91347479
Li       3.63677903      -0.69773588       2.41661942
Li       0.96545871      -0.60086472       6.04921977
Li       4.13016871       5.75058366       3.28087445
Li       6.26587895      -0.15490911       2.70490814
Li       3.10116895       5.30462805       6.62518607
Li       3.74158157       3.39019118       4.83224240
Li       0.57687157       1.75952776       4.49785182
Cu       4.30523667      -3.22379023       8.77299802
Cu       1.14052667       8.37350917       0.55709619
Cu       2.86120925       4.09817335       1.21968683
Cu       6.02591925       1.05154559       8.11040739
Cu       6.06502304       3.81030440       5.65397272
Cu       2.90031304       1.33941454       3.67612150
20
Lattice="6.50055 0.0 0.0 -3.2502749999999985 5.629641438570933 0.0 0.0 0.0 8.15411" Properties=species:S:1:pos:R:3 config_type=buildcell buildcell_config_i=74 RSS_min_vol_per_atom=9.0 buildcell_type=wide gap_rss_group=ALL gap_rss_iter=1 buildcell_symmetry="143 P3 P 3 @ 0.01" pbc="T T T"
Li       1.72260545       1.64554757       3.13052183
Li       3.81405828       3.31504758       3.13052183
Li       4.21416128       0.66904629       3.13052183
Li       4.64851178       0.54343886       5.92978784
Li       1.39665097       1.33219272       5.92978784
Li       3.70566225       3.75400986       5.92978784
Li      -0.55615586       5.20095775       7.47577040
Li       1.53196447       3.51080766       7.47577040
Li      -0.97580861       2.54751746       7.47577040
Li       0.96390415       1.20740496       8.72777447
Li      -2.68658371       4.19117347       8.72777447
Li       1.72267955       5.86070444       8.72777447
Li      -0.97572703       4.95884771       4.38293197
Li       1.53207660       3.99522198       4.38293197
Li      -0.55634957       2.30521319       4.38293197
Cu       1.32731870       3.78259324       1.90057790
Cu      -0.63811251       2.58885310       1.90057790
Cu      -0.68920619       4.88783653       1.90057790
Cu       0.00000000       0.00000000       2.52105185
Cu       3.25027533       1.87654696       1.18317441
16
Lattice="6.40569 0.0 0.0 0.0 6.78761 0.0 -3.2028424442304977 -0.5890230751881433 6.1414582304882215" Properties=species:S:1:pos:R:3 config_type=buildcell buildcell_config_i=75 RSS_min_vol_per_atom=9.0 buildcell_type=wide gap_rss_group=ALL gap_rss_iter=1 buildcell_symmetry="5 C2 C 2y @ 0.01" pbc="T T T"
Li       2.12540899       5.93981797       4.82053804
Li      -1.07743747       0.25876896       1.32092019
Li       0.02620380       2.61923599       3.18812800
Li       3.22904870       3.57935093       2.95333023
Li       0.26564495       4.05622470       5.45853545
Li       3.46848733       2.14236223       0.68292279
Li       3.27589161       0.75826791       2.98616369
Li       0.07304668       5.44031901       3.15529454
Li       2.11399411       2.16055248       4.95980420
Li       5.31683753       4.03803445       1.18165403
Li       2.18804596       5.59045712       1.49059947
Li      -1.01479772       0.60812980       4.65085876
Cu       4.49750141       2.91229432       4.99767612
Cu       1.29465544       3.28629260       1.14378211
Cu      -1.95738704       5.18521577       5.32676923
Cu       1.24545608       1.01337115       0.81468900
20
Lattice="6.03139 0.0 0.0 -0.3423237754217176 6.132953667098833 0.0 -0.36048809272016935 -2.8715736999560457 8.558204834942181" Properties=species:S:1:pos:R:3 config_type=buildcell buildcell_config_i=76 RSS_min_vol_per_atom=9.0 buildcell_type=wide gap_rss_group=ALL gap_rss_iter=1 buildcell_symmetry="1 P1 P 1 @ 0.01" pbc="T T T"
Li       2.70886221       2.62460050       3.89645909
Li       4.77911493       0.96151932       3.41088024
Li       0.57915603      -1.21202302       1.54429554
Li       2.82652124       3.11568912       6.88608823
Li      -0.00796362       2.38221113      -0.50555798
Li       1.22918327       0.76361796       6.27200622
Li       5.26332881       2.11875806       7.48189162
Li       1.97660854       0.76005724       0.34176592
Li       1.48357009       0.23269379       3.63752033
Li       0.56429552       3.23676460       5.41729231
Li       4.62771555       0.42760755       0.72733102
Li       5.23754373      -0.79982278       5.40471860
Li       3.12362597       4.91019669       2.52079527
Li       2.25600994       3.59376526       0.32935481
Li       0.69171854       2.32504837       2.12702285
Cu       2.46081870       4.84333343       5.11702085
Cu       3.29930689      -0.53264991       7.23944538
Cu       4.98832246       3.58512207       3.53452833
Cu       4.50723487       3.16000677       1.32576606
Cu       3.62719878       1.09649223       5.64887391
16
Lattice="4.54578 0.0 0.0 0.27869361927964215 8.866351030693112 0.0 1.1021790014643795 1.8126784292950993 8.657195176054381" Properties=species:S:1:pos:R:3 config_type=buildcell buildcell_config_i=77 RSS_min_vol_per_atom=9.0 buildcell_type=wide gap_rss_group=ALL gap_rss_iter=1 buildcell_symmetry="1 P1 P 1 @ 0.01" pbc="T T T"
Li       4.25905298       7.31471417       1.84256452
Li       1.70181299       4.91798385       1.77958689
Li       1.91492626       2.95081323       7.44217688
Li       4.18438825       2.65501319       6.00969070
Li       4.99090335       7.34862895       4.44120952
Li       1.36256136       9.31056989       6.87978643
Li       3.36802204       5.18490556       3.88730226
Li       2.58963085       2.15855905       2.17762481
Li       0.31705452       2.78901281       0.86315958
Li       2.71800941       7.19540064       5.89045169
Li       3.18007310       9.47168382       4.45570426
Li       3.44133723       5.58066570       8.00001883
Cu       3.26964484       9.95680119       8.73004894
Cu       1.55516687       4.98653478       6.03540777
Cu       3.70819996       0.58965298       0.58137394
Cu       3.95009674       5.11091235       0.70346377
24
Lattice="5.06998 0.0 0.0 0.0 6.7185 0.0 0.0 0.0 14.64688" Properties=species:S:1:pos:R:3 config_type=buildcell buildcell_config_i=78 RSS_min_vol_per_atom=9.0 buildcell_type=wide gap_rss_group=ALL gap_rss_iter=1 buildcell_symmetry="18 P2_12_12 P 2 2ab @ 0.01" pbc="T T T"
Li       1.97350645       4.58712978      11.20150174
Li       3.09647355       2.13137022      11.20150174
Li       0.56148355       1.22787978       3.44537826
Li       4.50849645       5.49062022       3.44537826
Li       4.03327455       5.85381158       9.99893138
Li       1.03670545       0.86468842       9.99893138
Li       3.57169545       2.49456158       4.64794862
Li       1.49828455       4.22393842       4.64794862
Li       3.43257013       5.70980053       0.54213083
Li       1.63740987       1.00869947       0.54213083
Li       4.17239987       2.35055053      14.10474917
Li       0.89758013       4.36794947      14.10474917
Li       5.51312870       2.02933972       6.46565719
Li      -0.44314870       4.68916028       6.46565719
Li       2.09184130       5.38858972       8.18122281
Li       2.97813870       1.32991028       8.18122281
Li       5.06998000       6.71850000      12.33719299
Li       2.53499000       3.35925000       2.30968701
Cu       1.44143080       6.36247661       5.94606498
Cu       3.62854920       0.35602339       5.94606498
Cu       1.09355920       3.00322661       8.70081502
Cu       3.97642080       3.71527339       8.70081502
Cu       0.00000000       0.00000000       7.85677684
Cu       2.53499000       3.35925000       6.79010316
8
Lattice="5.81483 0.0 0.0 1.7440246501632208 5.5471277205886524 0.0 1.7440246501632208 1.279866848888466 5.397459290966386" Properties=species:S:1:pos:R:3 config_type=buildcell buildcell_config_i=79 RSS_min_vol_per_atom=9.0 buildcell_type=wide gap_rss_group=ALL gap_rss_iter=1 buildcell_symmetry="146 R3 R 3 @ 0.01" pbc="T T T"
Li       6.39343176       2.00381482       1.76585923
Li       3.99772170       5.44508710       1.54231967
Li       3.82912644       2.98676756       4.94231854
Li       7.00045494       4.59133565       2.24177103
Li       5.19106012       5.70621774       3.95022072
Li       6.47958603       3.40438788       4.64083805
Cu       9.32382287       6.84236418       5.40961059
Cu       7.64261769       5.60859792       4.43418822
