12
Lattice="4.19056 0.0 0.0 0.0 6.36528 0.0 0.0 -3.182639999999999 5.512494182201013" Properties=species:S:1:pos:R:3 config_type=buildcell buildcell_config_i=80 RSS_min_vol_per_atom=6.0 buildcell_type=narrow_even gap_rss_group=ALL gap_rss_iter=1 buildcell_symmetry="144 P3_1 P 31 @ 0.01" pbc="T T T"
Cu       3.19401131       3.78483623      -0.62781906
Cu       0.40030450       5.01656946       3.59167330
Cu       1.79715811       0.74651526       2.54863939
Cu       3.17493378       6.08673503       1.01862348
Cu       0.38122698       2.43975867       4.76195542
Cu       1.77808059       1.02142630      -0.26808472
Cu       4.33319451       2.34248606       2.47550568
Cu       1.53948770       3.05018616       0.79089959
Cu       2.93634090       4.15524778       2.24608891
Cu       3.87300355       1.78865323       0.29103544
Cu       1.07929675       5.21890930       1.40350142
Cu       2.47614994       2.54035747       3.81795733
10
Lattice="2.36244 0.0 0.0 -0.0965271742601342 5.593707206873574 0.0 -0.23115477535842313 -1.2725615121843292 8.632070721005253" Properties=species:S:1:pos:R:3 config_type=buildcell buildcell_config_i=81 RSS_min_vol_per_atom=6.0 buildcell_type=narrow_even gap_rss_group=ALL gap_rss_iter=1 buildcell_symmetry="1 P1 P 1 @ 0.01" pbc="T T T"
Cu       0.70170201       2.57129861       3.43227360
Cu       0.24728751      -1.24379818       5.09947865
Cu       0.24852666       1.29786588       8.05308666
Cu       0.63197005       4.77389802       2.77373983
Cu       0.74422898       5.60490749       0.63199619
Cu       1.81316128       3.53336149       1.23887306
Cu      -0.45272428       0.68175899       4.05436191
Cu       1.42959718       0.26713982       6.37003573
Cu       1.83551392       3.40393952       7.43474381
Cu       0.26433365       2.13013720       5.69080916
16
Lattice="6.27151 0.0 0.0 -0.44056740700758706 6.256016147675981 0.0 -2.915472674749007 -3.1280095525649094 4.737196644045351" Properties=species:S:1:pos:R:3 config_type=buildcell buildcell_config_i=82 RSS_min_vol_per_atom=6.0 buildcell_type=narrow_even gap_rss_group=ALL gap_rss_iter=1 buildcell_symmetry="43 Fdd2 F 2 -2d @ 0.01" pbc="T T T"
Cu       2.27632201       4.88995173       2.34289429
Cu       3.55461922       1.36606295       2.34289429
Cu       4.49767864       5.74222144      -0.02570403
Cu       1.33326397       0.51379473      -0.02570403
Cu      -0.01750672       4.25998575      -0.11647961
Cu       5.84844996       1.99603110      -0.11647961
Cu       1.11493553       0.28179560       2.25211871
Cu      -1.11493626      -0.28179638       2.25211871
Cu      -0.49779999       1.94885095       2.18181445
Cu       0.05723131       4.30716384       2.18181445
Cu      -1.15674945      -0.35966604       4.55041277
Cu       1.15674680       0.35966320       4.55041277
Cu       0.58010363      -1.86571370       4.47883089
Cu      -0.58010623       1.86571090       4.47883089
Cu       4.14937085       3.57561474       2.11023256
Cu       1.68157052       2.68040009       2.11023256
20
Lattice="6.6778 0.0 0.0 -2.5687132871863523 6.16398612005513 0.0 -2.0546973635841663 -3.081890094244711 5.556364371698153" Properties=species:S:1:pos:R:3 config_type=buildcell buildcell_config_i=83 RSS_min_vol_per_atom=6.0 buildcell_type=narrow_even gap_rss_group=ALL gap_rss_iter=1 buildcell_symmetry="23 I222 I 2 2 @ 0.01" pbc="T T T"
Cu       0.95524022       4.76659144       0.66979639
Cu       1.05790855       2.79460651       1.84907861
Cu       0.11794162      -1.03039537       3.70728576
Cu       1.97768831      -0.36661053       4.88656798
Cu       0.28835434       1.13898754       4.47511309
Cu       2.33981183       1.56061266       0.39169257
Cu      -1.51420664      -0.32179936       5.16467180
Cu       2.99481917       3.78639121       1.08125128
Cu      -2.72075199       2.96157756       3.00057067
Cu       3.65125792       0.86973132       3.90646420
Cu       4.02140342       0.62298089       1.64990017
Cu      -0.84313065       1.70990228       2.55579370
Cu       1.83098257       0.69805663       2.51107830
Cu      -0.92046662       3.14657769       4.41998062
Cu      -1.36487189       3.44283013       1.13638375
Cu       4.56313465      -1.12327240       3.04528607
Cu       1.85641741       2.75478058       4.00564975
Cu      -3.12113990       2.53992906       5.53958693
Cu       5.59947892       1.17812822       0.01677744
Cu      -0.22597774      -0.30864581       1.55071462
8
Lattice="4.3721 0.0 0.0 0.0 4.48488 0.0 0.0 0.0 4.62158" Properties=species:S:1:pos:R:3 config_type=buildcell buildcell_config_i=84 RSS_min_vol_per_atom=6.0 buildcell_type=narrow_even gap_rss_group=ALL gap_rss_iter=1 buildcell_symmetry="29 Pca2_1 P 2c -2ac @ 0.01" pbc="T T T"
Cu       2.31527485       3.92495888       4.36591419
Cu       0.12922485       0.55992112       0.25566581
Cu       2.31527485       1.68251888       0.25566581
Cu       0.12922485       2.80236112       4.36591419
Cu       1.11514345       0.60206375       2.78414239
Cu       3.30119345       3.88281625       1.83743761
Cu       1.11514345       2.84450375       1.83743761
Cu       3.30119345       1.64037625       2.78414239
24
Lattice="5.61722 0.0 0.0 -2.591043515643595 6.656785995729567 0.0 -0.0996417023176805 -1.6223465771321863 8.1747958718996" Properties=species:S:1:pos:R:3 config_type=buildcell buildcell_config_i=85 RSS_min_vol_per_atom=6.0 buildcell_type=narrow_even gap_rss_group=ALL gap_rss_iter=1 buildcell_symmetry="1 P1 P 1 @ 0.01" pbc="T T T"
Cu       0.82082593       2.45871093       4.80550143
Cu      -1.55546739       2.28266015       7.92626001
Cu       3.27720794       5.81755888       3.78001008
Cu       4.23450852       1.60733365       4.26903127
Cu       2.60407817       5.03568455       5.90802634
Cu       1.94437932       0.71688776       3.80880335
Cu       3.26680685       1.66494753       2.18334655
Cu      -1.06524092       3.21588519       5.88212042
Cu       2.35926028       2.82054565       6.47645832
Cu       1.28114033       1.07525532       1.18386576
Cu       1.67281661      -0.72860472       5.58453332
Cu      -0.42638598       2.60738344       1.34703959
Cu      -0.11977770       0.66653267       5.94527725
Cu       4.93834885       0.11024266       1.90286522
Cu       4.53013081      -0.59299050       7.91774841
Cu       1.43363456       2.97346585       2.64925842
Cu       3.03401398       3.56762953       4.19046985
Cu       3.25403820       0.69901634       6.45156443
Cu       2.00795279       1.31154547       8.28515725
Cu       0.52489884       4.60603764       6.79253680
Cu       0.70065798       5.14019214       2.40844692
Cu      -1.60335744       4.56710445       7.66381309
Cu       1.62512376       3.56679000       8.52441391
Cu       1.09996810       6.03992559       4.48713973
8
Lattice="3.72025 0.0 0.0 0.09080806986319935 4.15784848690374 0.0 1.607281658020145 1.9688114616477754 6.399475884029595" Properties=species:S:1:pos:R:3 config_type=buildcell buildcell_config_i=86 RSS_min_vol_per_atom=6.0 buildcell_type=narrow_even gap_rss_group=ALL gap_rss_iter=1 buildcell_symmetry="1 P1 P 1 @ 0.01" pbc="T T T"
Cu       4.32210208       4.38766810       2.63024602
Cu       1.97712215       2.61183862       3.12526020
Cu       4.41305414       3.36706733       4.87785138
Cu       2.85610948       4.96090167       4.30723188
Cu       1.94942285       2.34250995       0.41267020
Cu       2.80420994       0.24223508       0.81734298
Cu       3.80911160       2.31895797       1.76580546
Cu       2.55107185       2.46150189       5.88636143
12
Lattice="3.8218 0.0 0.0 0.20579683374762403 6.303061230832163 0.0 0.8821564810256407 2.509299932406079 5.736897463987944" Properties=species:S:1:pos:R:3 config_type=buildcell buildcell_config_i=87 RSS_min_vol_per_atom=6.0 buildcell_type=narrow_even gap_rss_group=ALL gap_rss_iter=1 buildcell_symmetry="1 P1 P 1 @ 0.01" pbc="T T T"
Cu       0.66526946       1.56500058       2.13461751
Cu       3.39036148       5.09429397       4.69989530
Cu       0.70406188       2.99107739       0.33052274
Cu       2.57616547       0.36660953       1.68496235
Cu       3.21408556       2.84277402       5.13512905
Cu       3.31137109       7.23427477       3.86077365
Cu       2.57615966       2.84464299       2.10564675
Cu       1.16585948       3.47370390       3.81014840
Cu       1.40060522       5.97606241       3.62470606
Cu       1.50929151       7.87650684       5.31466181
Cu       2.53803572       4.38332543       0.39656017
Cu       3.89057363       4.72823357       2.22504880
