10
Lattice="3.64011 0.0 0.0 0.2181183560432708 4.146106579473926 0.0 1.4721275470633857 0.19025705615832822 9.322839718168446" Properties=species:S:1:pos:R:3 config_type=buildcell buildcell_config_i=90 RSS_min_vol_per_atom=6.0 buildcell_type=wide_even gap_rss_group=ALL gap_rss_iter=0 buildcell_symmetry="1 P1 P 1 @ 0.01" pbc="T T T"
Cu       1.65235732       0.82848879       8.20978151
Cu       1.61752856       2.25995876       3.59029518
Cu       3.17589159       2.96240236       7.70271342
Cu       4.61776496       3.81400254       6.30621138
Cu       2.24680800       0.26874871       4.62100661
Cu       2.02011003       1.23900795       0.24844086
Cu       1.05985357       3.36038965       0.69088354
Cu       3.00388017       2.72485315       1.65217556
Cu       3.24029998       2.49355831       4.90290607
Cu       1.67188938       4.29320414       2.59618238
8
Lattice="4.09638 0.0 0.0 2.0481917977145208 4.9908910218692375 0.0 2.0481917977145208 1.3328861637957046 4.809616166237897" Properties=species:S:1:pos:R:3 config_type=buildcell buildcell_config_i=91 RSS_min_vol_per_atom=6.0 buildcell_type=wide_even gap_rss_group=ALL gap_rss_iter=0 buildcell_symmetry="1 P1 P 1 @ 0.01" pbc="T T T"
Cu       5.17081129       4.88812933       1.21131257
Cu       3.22392727       2.39061938       4.39429715
Cu       5.27906059       1.49856490       3.61612501
Cu       3.12587973       3.86340070       0.34533235
Cu       1.04829233       2.41778111       1.15464917
Cu       3.01605776       1.87445309       2.19133678
Cu       5.02967468       3.57343768       3.62904009
Cu       7.14608987       4.35479381       2.50722930
14
Lattice="5.23559 0.0 0.0 2.6177943391205947 6.146932934209399 0.0 2.6177943391205947 -3.116053723750599e-07 6.146932934209391" Properties=species:S:1:pos:R:3 config_type=buildcell buildcell_config_i=92 RSS_min_vol_per_atom=6.0 buildcell_type=wide_even gap_rss_group=ALL gap_rss_iter=0 buildcell_symmetry="1 P1 P 1 @ 0.01" pbc="T T T"
Cu       5.10379307       1.77664581       4.76964976
Cu       5.56935941       4.68146548       1.76705878
Cu       6.63466983       2.76294440       3.06536334
Cu       4.04868568       3.06596887       2.63962811
Cu       2.82345765       4.67261084       1.45892266
Cu       7.61568791       1.53013108       4.89536368
Cu       6.52142227       5.61843718       0.18540919
Cu       3.83637592       0.04559684       5.61719274
Cu       3.97695366       0.13401663       2.83544259
Cu       6.47735721       2.89047807       0.09375515
Cu       3.97122061       6.20923607       3.19504127
Cu       6.33401566       3.27864517       5.90192405
Cu       5.25647603       1.34076614       1.40391463
Cu       5.25527513       4.68404612       4.62733653
22
Lattice="4.60714 0.0 0.0 -1.1535991884305803 4.87544975539204 0.0 -0.07753819663342947 -0.4804004702783016 10.594600535608656" Properties=species:S:1:pos:R:3 config_type=buildcell buildcell_config_i=93 RSS_min_vol_per_atom=6.0 buildcell_type=wide_even gap_rss_group=ALL gap_rss_iter=0 buildcell_symmetry="1 P1 P 1 @ 0.01" pbc="T T T"
Cu       2.73229334       3.09421308       7.95381883
Cu       0.84568367       1.26359444       2.68213686
Cu       0.78106055       1.28453344       6.38428339
Cu       2.80711936       3.14091755       4.11679673
Cu      -0.69812820       3.62979522       5.89004589
Cu       4.04209829       0.47264292       4.56348760
Cu       0.52222796       4.90999683       1.14821655
Cu       2.74039462      -0.64942509       9.45047404
Cu       0.51787098       2.61384612       4.48817300
Cu       2.84126316       1.73223155       5.96215881
Cu      -0.07821406       0.84100021      10.38936832
Cu       3.28827492       3.82153139       0.08179813
Cu       0.31507034       2.40956607       8.09506789
Cu       3.10150476       1.86336286       2.38385087
Cu       2.42866879       4.39561656       2.10281494
Cu       0.86378457      -0.07674152       8.44964562
Cu       1.46370789       2.55278333       1.10435101
Cu       1.90814833       1.59826974       9.58382555
Cu       2.76239235      -0.45773726       6.24794973
Cu       0.68578898       4.97904090       4.36028356
Cu       3.39739706       0.82315726       7.87434953
Cu      -0.18893254       3.63457871       2.74524151
6
Lattice="4.68643 0.0 0.0 0.0 4.68643 0.0 -2.3432172351343588 -2.3432172351343588 3.9172178331487495" Properties=species:S:1:pos:R:3 config_type=buildcell buildcell_config_i=94 RSS_min_vol_per_atom=6.0 buildcell_type=wide_even gap_rss_group=ALL gap_rss_iter=0 buildcell_symmetry="1 P1 P 1 @ 0.01" pbc="T T T"
Cu       3.56449315       1.74358405       1.41061757
Cu      -1.01930598      -0.60922055       2.54795542
Cu       0.96298463       3.00576111       1.91166148
Cu       1.59240542       0.53946086       1.91203594
Cu       0.02419623       4.49510198      -0.17249178
Cu      -0.05623099       1.07032215       3.94864257
10
Lattice="5.25602 0.0 0.0 0.0 5.65037 0.0 0.0 -2.8251849999999985 4.893363960781479" Properties=species:S:1:pos:R:3 config_type=buildcell buildcell_config_i=95 RSS_min_vol_per_atom=6.0 buildcell_type=wide_even gap_rss_group=ALL gap_rss_iter=0 buildcell_symmetry="1 P1 P 1 @ 0.01" pbc="T T T"
Cu       3.68878198      -1.32434754       3.54144767
Cu       3.79141355       0.44613832       1.99666579
Cu       3.79703185       0.91771177       4.24302168
Cu       2.69536190       4.09189373       1.36774133
Cu       2.66530213       2.16509239       2.70416764
Cu       2.58487715       1.87961682       0.63381447
Cu       1.11638134      -1.96617529       4.13455130
Cu       1.18460612       0.29071273       1.17644727
Cu       1.15274548       1.55207727       4.36472005
Cu       4.77457885       2.76512141       1.60195178
22
Lattice="6.79011 0.0 0.0 0.0 6.79011 0.0 0.0 0.0 7.02577" Properties=species:S:1:pos:R:3 config_type=buildcell buildcell_config_i=96 RSS_min_vol_per_atom=6.0 buildcell_type=wide_even gap_rss_group=ALL gap_rss_iter=0 buildcell_symmetry="1 P1 P 1 @ 0.01" pbc="T T T"
Cu       3.13225370       5.22869324       4.91153212
Cu       3.85983070       1.52417499       4.82334957
Cu       5.40044095       3.78427119       2.13205930
Cu       1.60184633       3.03624052       2.13243376
Cu       3.10677851       1.35626230       1.16138648
Cu       3.65129896       5.14123656       1.36530300
Cu       5.15171726       2.94135192       5.83845661
Cu       1.52501270       3.71428053       5.54941692
Cu       5.57982118       6.74047966       4.30385775
Cu       1.19342035       0.00065873       4.38978773
Cu       6.66921674       1.34107837       2.60546317
Cu      -0.04504850       5.71651394       2.48472853
Cu       5.65514581      -0.13524442       0.77325350
Cu       1.17553667       6.80323406       0.92320893
Cu       6.71782258       5.60414908       5.97184570
Cu      -0.01126183       1.10978667       6.22541012
Cu       0.03436183       3.21875098       0.53601629
Cu       3.35654677      -0.06769220       6.58332973
Cu       3.49815495       0.09312801       2.92535535
Cu      -0.03092124       3.42818134       4.11404741
Cu       3.34713758       3.37648910       6.91513650
Cu       3.27543434       3.47630758       3.64850900
18
Lattice="3.02776 0.0 0.0 -1.4872165294416404 8.012251917323592 0.0 -1.0566959566828635 -2.24584705088662 9.623304017438812" Properties=species:S:1:pos:R:3 config_type=buildcell buildcell_config_i=97 RSS_min_vol_per_atom=6.0 buildcell_type=wide_even gap_rss_group=ALL gap_rss_iter=0 buildcell_symmetry="1 P1 P 1 @ 0.01" pbc="T T T"
Cu       1.35342192       0.38459685       6.38170385
Cu       0.21420434       5.67989045       7.49756312
Cu      -0.05219925       0.60351367       1.42852063
Cu       0.90081792       4.28229280       0.53569947
Cu       1.32795646       0.18559932       3.02796219
Cu       1.24752184       2.15699598       1.50506822
Cu       0.09809993       6.33374705       4.56649163
Cu      -0.93873049       3.33673381       4.53145039
Cu      -0.26456065       1.15359325       4.63838940
Cu      -0.18999729       3.60740024       2.47637715
Cu       0.21356329       4.42512940       9.56978444
Cu      -0.31590412      -0.33553035       7.72187459
Cu      -1.22578798       3.65011213       7.74634817
Cu      -1.15435077       6.49086699       2.56991838
Cu       1.29218161       0.66410892       9.02333360
Cu      -1.39697164       5.28921591       5.82918095
Cu       0.69149264       2.42932010       6.33415108
Cu       0.20856286      -2.11712996       9.46025925
16
Lattice="6.0335 0.0 0.0 -3.0167499999999987 5.225164273733411 0.0 0.0 0.0 7.41609" Properties=species:S:1:pos:R:3 config_type=buildcell buildcell_config_i=98 RSS_min_vol_per_atom=6.0 buildcell_type=wide_even gap_rss_group=ALL gap_rss_iter=0 buildcell_symmetry="1 P1 P 1 @ 0.01" pbc="T T T"
Cu      -1.60533634       4.78047393       4.92329785
Cu       2.11504217       4.23787751       4.83511530
Cu      -0.14981105       1.47147933       4.81158156
Cu      -1.60075175       4.74795859       2.51098803
Cu       1.98693541       4.06996483       2.38506922
Cu      -0.36396109       1.29345274       2.58898574
Cu       1.25869938       2.00732113       6.41217236
Cu       4.18012166       2.98893852       6.12313267
Cu       3.44361066       0.10551934       6.15050813
Cu       1.38707158       2.08848763       1.12131314
Cu       4.14252862       3.16741352       1.14913279
Cu       3.39227784       0.17668157       1.02839815
Cu       0.63873577       5.54090335       3.57522640
Cu      -2.24076405       2.96564903       3.72518183
Cu       1.63103594       1.79154544       3.56019280
Cu      -0.07198472       3.43737915       3.81375722
16
Lattice="5.67288 0.0 0.0 0.0 6.48274 0.0 0.0 -3.2413699999999985 5.614217526129533" Properties=species:S:1:pos:R:3 config_type=buildcell buildcell_config_i=99 RSS_min_vol_per_atom=6.0 buildcell_type=wide_even gap_rss_group=ALL gap_rss_iter=0 buildcell_symmetry="1 P1 P 1 @ 0.01" pbc="T T T"
Cu       3.92199462       2.04538903       3.35752596
Cu       4.02462619      -1.44278176       2.16109238
Cu       4.03024449      -0.56310556       5.70422443
Cu       1.91488066      -1.80115498       5.64587362
Cu       1.88482088       2.37451194       4.11521527
Cu       1.80439590      -0.91230987       1.27970614
Cu       3.46315083       0.59229199       1.58701309
Cu       3.53137561       4.12882639       4.11626961
Cu       3.49951496       4.87960634      -0.20007447
Cu       0.07668261       4.22191977       1.01732695
Cu      -0.02105786       2.19189840       1.38131303
Cu      -0.06665829       3.51771027       3.06297408
Cu       5.72537848      -1.32101931       4.31539331
Cu       5.72417825       1.24726733       4.38157227
Cu       5.69292730      -0.07847874       2.26793550
Cu       2.76268167      -0.04606420       3.84852409
