11
Lattice="3.6377 0.0 0.0 1.0138426760897248 5.999215460919804 0.0 0.5069224060056904 2.9996080950730453 10.0885587926503" Properties=species:S:1:pos:R:3 config_type=buildcell buildcell_config_i=28 RSS_min_vol_per_atom=10.0 buildcell_type=narrow_odd gap_rss_group=ALL gap_rss_iter=0 buildcell_symmetry="1 P1 P 1 @ 0.01" pbc="T T T"
Li       1.97156634       6.97779713       5.00270576
Li       3.89579456       4.98339298       4.91452321
Li       3.89643768       7.80543101       6.71567986
Li       1.98112639       4.22340211       6.71605432
Li       0.92848918       1.53030767       0.96767678
Li       3.69102121       4.17629673       1.17159329
Li       3.12861139       3.82366647       9.55840131
Li       2.42339602       8.04028819       9.26936161
Li       2.67214377       1.00356988       2.85300004
Li       1.96253106       4.94667419       2.93893002
Li       0.95367297       6.18444389       8.56653336
13
Lattice="3.29092 0.0 0.0 -1.5189929716318828 7.815189519501938 0.0 0.0 0.0 10.18538" Properties=species:S:1:pos:R:3 config_type=buildcell buildcell_config_i=29 RSS_min_vol_per_atom=10.0 buildcell_type=narrow_odd gap_rss_group=ALL gap_rss_iter=0 buildcell_symmetry="1 P1 P 1 @ 0.01" pbc="T T T"
Li       0.21238185       5.84367609       3.80747331
Li       0.31501342       5.83408718       6.41926185
Li      -1.08983632       8.22775481       3.49486160
Li      -1.19350160       8.10466957       6.59699798
Li       1.86518247       0.29218681       1.17749987
Li       1.78475749       0.38223172       8.86681308
Li       1.69853638       5.90440564       8.73602315
Li       1.76676116       6.05238883       1.45344691
Li       1.70441760       3.18107771       1.49180425
Li       1.79642568       3.10992158       8.54930702
Li       0.05309991       3.20891605       6.44134008
Li       0.00749947       3.10594272       3.62060583
Li       0.13428273       4.38833094      10.05256140
