8
Lattice="4.51797 0.0 0.0 -0.3428033815746639 4.504946033248453 0.0 0.0 0.0 6.15685" Properties=species:S:1:pos:R:3 config_type=buildcell buildcell_config_i=50 RSS_min_vol_per_atom=7.0 buildcell_type=wide gap_rss_group=ALL gap_rss_iter=0 buildcell_symmetry="1 P1 P 1 @ 0.01" pbc="T T T"
Li       1.12651870       1.14807664       0.06476885
Li       3.31673358       3.39096075       3.05501130
Cu       4.89943885       3.57532691       4.97498454
Cu       3.18298889       4.94696429       1.08834504
Cu       1.06534580       2.54950502       1.77101520
Cu       2.59770550       1.14482731       4.24476775
Cu       2.68545042       2.85430737       6.30341488
Cu       0.66609189       0.74981754       2.93595018
12
Lattice="2.7362 0.0 0.0 0.0 8.96706 0.0 0.0 -4.483529999999998 7.76570175725929" Properties=species:S:1:pos:R:3 config_type=buildcell buildcell_config_i=51 RSS_min_vol_per_atom=7.0 buildcell_type=wide gap_rss_group=ALL gap_rss_iter=0 buildcell_symmetry="1 P1 P 1 @ 0.01" pbc="T T T"
Li       2.93458033      -1.92783507       4.83553998
Li       3.03721190       1.28550955       3.69932317
Li       3.04283019       0.68182589       6.99094887
Cu       2.35627141       2.88546764       6.28637312
Cu       2.32621163      -2.65819493       6.96575836
Cu       2.24578665      -0.56622562       2.09163202
Cu       1.34553842       6.76721593       0.78349220
Cu       1.41376320       4.96799442       5.52195152
Cu       1.38190256       1.59199435       1.34924874
Cu       0.12016857       6.22508254       2.35956747
Cu       0.02242810       3.94100782       4.24737831
Cu      -0.02317233       3.49191808       1.00615251
24
Lattice="7.01191 0.0 0.0 0.0 7.03258 0.0 0.0 -3.5162899999999984 6.090392934146369" Properties=species:S:1:pos:R:3 config_type=buildcell buildcell_config_i=52 RSS_min_vol_per_atom=7.0 buildcell_type=wide gap_rss_group=ALL gap_rss_iter=0 buildcell_symmetry="1 P1 P 1 @ 0.01" pbc="T T T"
Li       3.40954870      -0.06851951       0.84317467
Li       5.84948337       2.84610199       5.63041074
Li       1.18049546      -2.73808078       5.70160818
Li       2.00728119       4.66524807       0.01714654
Li       4.31452452       4.43027398       3.87600556
Li      -0.44050666       1.11439398       2.00960141
Cu       1.19068304      -0.39427666       4.32868423
Cu       3.59621092       0.02774472       3.63771331
Cu       5.90165408       0.24314771       4.10337842
Cu       2.97653895       3.05453395       1.69322237
Cu       5.21610159       4.16887355       1.83477585
Cu       0.49589426       3.53287989       2.40979186
Cu       4.83022992       1.90926711       3.31248927
Cu       7.16633278      -0.44620455       6.20806205
Cu       2.46047563      -1.61529328       2.39670057
Cu       1.98044231       1.10742798       2.63933578
Cu       4.42409236       0.56905769       5.85494280
Cu       6.68852540      -1.96654576       3.88579553
Cu       5.10385743       2.14499997       0.19013619
Cu       7.30713934       5.80242923       1.73749878
Cu       2.61553626       2.70912926       4.06575723
Cu       5.06804629      -0.71922134       2.44795313
Cu       0.50585904       2.01434448       4.27716122
Cu       2.78585118      -1.07737771       5.78126278
20
Lattice="6.44775 0.0 0.0 -0.24785909734068 6.442984241045873 0.0 0.0 0.0 7.76648" Properties=species:S:1:pos:R:3 config_type=buildcell buildcell_config_i=53 RSS_min_vol_per_atom=7.0 buildcell_type=wide gap_rss_group=ALL gap_rss_iter=0 buildcell_symmetry="1 P1 P 1 @ 0.01" pbc="T T T"
Li       4.81342188       2.98979747       2.45236576
Li       2.97058263       4.85227691       5.35546939
Li       2.97620092       4.95243572       2.34064947
Li       4.81800647       2.95728213       5.33231011
Li       5.83034508       5.84247582      -0.17249178
Cu       0.03821517       1.65535208       6.64793369
Cu       1.66090386       0.02067087       1.29653592
Cu       1.72912864       0.16865406       6.47403414
Cu       0.04000565       1.76772746       1.03487169
Cu       0.23169260       4.99608928       5.00416205
Cu       4.98478299       0.57357161       2.73179885
Cu       4.93918256       0.47059828       4.91124706
Cu       0.21500915       4.86018613       2.60032997
Cu       2.92816918       1.43783351       2.75038714
Cu       1.23960834       2.92865618       4.88537748
Cu       1.17918875       2.91270268       2.83896254
Cu       2.94284488       1.18768284       5.06563808
Cu       3.50884465       7.05264169       0.06116763
Cu       7.08180653       3.91157293      -0.08392175
Cu       4.02679018       4.24993776       0.09755451
16
Lattice="4.28268 0.0 0.0 0.0 7.13165 0.0 0.0 0.0 8.71726" Properties=species:S:1:pos:R:3 config_type=buildcell buildcell_config_i=54 RSS_min_vol_per_atom=7.0 buildcell_type=wide gap_rss_group=ALL gap_rss_iter=0 buildcell_symmetry="1 P1 P 1 @ 0.01" pbc="T T T"
Li       1.23547827       1.76947189       2.86123012
Li       1.33810984       5.32493634       5.89738504
Li       3.25479443       5.42509515       2.74951383
Li       3.15112915       1.73695655       5.87422576
Cu       3.31445807       3.96010956       7.44538225
Cu       3.23403309       2.87892930       1.13081070
Cu       0.90161575       2.83898204       7.76443891
Cu       0.96984053       4.15819041       0.95691114
Cu       3.26788971       0.64371954       3.28318585
Cu       3.35989778       6.43895885       5.28980542
Cu       0.90018136       6.68425054       3.39693548
Cu       0.85458092       0.71488177       5.19689043
Cu       3.34362933       2.73660027       3.26588241
Cu       3.34242910       4.27292937       5.33569581
Cu       0.94837220       4.16897234       3.25084882
Cu       0.88795261       2.88650341       5.42427120
20
Lattice="4.03731 0.0 0.0 -1.7510717465985515 5.4192589306900905 0.0 -0.5955549994405749 -2.6209559824745208 10.644962343858824" Properties=species:S:1:pos:R:3 config_type=buildcell buildcell_config_i=55 RSS_min_vol_per_atom=7.0 buildcell_type=wide gap_rss_group=ALL gap_rss_iter=0 buildcell_symmetry="1 P1 P 1 @ 0.01" pbc="T T T"
Li       2.81585555       1.68092402       6.85714475
Li       1.38586309       0.26563141       8.47604797
Li      -0.01764258       3.96897893      -0.71441000
Li       0.83009475       4.13306260       2.92947534
Li      -0.40283716       1.53905673       3.66862685
Cu       2.49202723       0.23756107       1.09599229
Cu       1.51193815       1.78535388       2.54624064
Cu       0.49997477      -1.37737181       4.27673127
Cu      -0.84212245      -0.65391417       7.29548485
Cu       2.79346289      -0.28023985       5.18615854
Cu       4.48638648       0.12488270       2.11776103
Cu       1.74569853       3.84296556       0.65372262
Cu       1.24977138      -1.56518234       6.46946700
Cu       1.16301680       1.83124598      -0.02143732
Cu       3.61283067       2.46635512       1.32217984
Cu       2.50256849      -1.46714812       9.79530303
Cu       0.78689219       2.45842678       7.89634452
Cu      -1.30172805       3.26639409       8.73650324
Cu       1.18645972       3.01441721       5.34009426
Cu       0.71067488       0.72237972       5.86227639
16
Lattice="3.78632 0.0 0.0 0.0 6.53163 0.0 -1.5563998953609648 0.0 10.217964300100112" Properties=species:S:1:pos:R:3 config_type=buildcell buildcell_config_i=56 RSS_min_vol_per_atom=7.0 buildcell_type=wide gap_rss_group=ALL gap_rss_iter=0 buildcell_symmetry="1 P1 P 1 @ 0.01" pbc="T T T"
Li       2.24435179       5.43211277       6.25114440
Li       0.18754272       5.42252386       4.00817506
Li       0.93614481       7.06514538       1.05992274
Li       1.50595258       6.94206014       9.06452115
Cu      -0.41727378       5.18518582       9.19881097
Cu       2.61516136       5.27523074       0.87808628
Cu       2.74833627       2.08216065       0.80049109
Cu      -0.63179621       2.23014384       9.42156327
Cu       2.00710161       2.40288438       4.34082306
Cu       0.20595002       2.33172825       5.73287251
Cu      -0.90667366       3.90223802       7.82984934
Cu       2.97065201       3.79926469       2.26468087
Cu       3.84243019       1.48552145       3.02295471
Cu      -1.57193760       1.75533512       7.07932781
Cu       1.91682148       6.88798442       3.17760574
Cu       0.22954938       6.87203091       6.99821858
12
Lattice="5.30233 0.0 0.0 -2.651164999999999 4.591952479248343 0.0 0.0 0.0 6.94098" Properties=species:S:1:pos:R:3 config_type=buildcell buildcell_config_i=57 RSS_min_vol_per_atom=7.0 buildcell_type=wide gap_rss_group=ALL gap_rss_iter=0 buildcell_symmetry="1 P1 P 1 @ 0.01" pbc="T T T"
Li       1.07402802       0.14668894       1.05708537
Li       2.43030007       3.60116062       3.28256258
Li       4.80906259       0.88360463       5.57268861
Cu       1.89533580       0.93170829       5.66981131
Cu       2.60183753       2.31717755       0.91657227
Cu       3.47854515       1.00411373       3.43414925
Cu       0.09371099       2.36343404       1.36235873
Cu      -0.59689685       3.18657981       3.38697950
Cu       0.33536676       3.51050628       5.72801473
Cu       0.75016292       1.24093132       3.16588727
Cu      -1.94093734       3.50955896       5.50736669
Cu       1.06240246       4.64083312       0.75931251
20
Lattice="5.78168 0.0 0.0 0.982845917568194 5.697529071862603 0.0 0.49207227970832157 0.41445566965966246 9.005458261384014" Properties=species:S:1:pos:R:3 config_type=buildcell buildcell_config_i=58 RSS_min_vol_per_atom=7.0 buildcell_type=wide gap_rss_group=ALL gap_rss_iter=0 buildcell_symmetry="1 P1 P 1 @ 0.01" pbc="T T T"
Li       7.53138358       4.52483406       1.02013811
Li       5.89674411       6.57786121       0.93195556
Li       3.94915967       0.14789825       4.07053179
Li       0.76885965       3.67762026       4.07090625
Li       0.74573376       0.41639839       4.20306947
Cu       2.85616814       0.85478532       6.30702061
Cu       1.34643817       2.56625224       6.42216075
Cu       3.21144056       4.23297403       2.75781586
Cu       4.66003223       2.47961151       2.78519133
Cu       2.50687168       0.51789745       1.86074581
Cu       0.92914295       2.52034015       1.88856547
Cu       3.07216264       6.12897123      -0.50056486
Cu       6.51982155       1.90781234      -0.51129910
Cu       2.99701571       4.08619798       5.19171097
Cu       4.44851331       2.22181273       5.02672194
Cu       1.34683457       4.52239457       7.72324115
Cu       4.77751698       0.44525783       7.64993733
Cu       3.64804968       4.53405838       7.34162586
Cu       5.26456272       2.94376297       7.19653648
Cu       2.51296496       2.17575477       3.66692193
24
Lattice="7.47277 0.0 0.0 -3.736384999999998 6.47160865663824 0.0 0.0 0.0 8.6351" Properties=species:S:1:pos:R:3 config_type=buildcell buildcell_config_i=59 RSS_min_vol_per_atom=7.0 buildcell_type=wide gap_rss_group=ALL gap_rss_iter=0 buildcell_symmetry="1 P1 P 1 @ 0.01" pbc="T T T"
Li      -1.02505788       5.74565676       3.74948346
Li       1.94114139       4.49919460       3.66130091
Li      -0.55618783       2.73786766       3.63776717
Li       4.86537030       0.66578369       7.95569163
Li       1.97174282       1.75767070       7.82977282
Li       4.39426536       3.70920136       8.03368934
Cu       2.61597762       5.49164357       6.88357836
Cu      -0.23413997       1.31778425       6.59453867
Cu      -2.54965484       6.01040356       6.62191413
Cu       1.06717478       0.77867085       2.39029411
Cu       3.88777668       5.34580505       2.41811377
Cu       6.12583047       0.55455184       2.29737912
Cu       6.24405752       0.25327912       4.58670912
Cu       1.03354336       0.93140793       4.73666455
Cu       3.96056066       5.13469153       4.57167552
Cu      -2.55877058       5.97629865       0.50768994
Cu       2.75688959       5.43774336       0.43438612
Cu      -0.27424871       1.23911456       0.46314535
Cu       0.96507239       3.39730683       1.31147414
Cu      -1.33678966       4.10615556       1.49295041
Cu       0.39597857       5.54744338       1.28476240
Cu       2.75479190       3.24868242       5.84856990
Cu       5.03505241       2.49893272       5.74910950
Cu       3.22797704       0.94173894       5.86674955
