24
Lattice="6.53215 0.0 0.0 -1.0035681876535318 7.313808499566406 0.0 0.0 0.0 7.56913" Properties=species:S:1:pos:R:3 config_type=buildcell buildcell_config_i=0 RSS_min_vol_per_atom=8.0 buildcell_type=narrow gap_rss_group=ALL gap_rss_iter=0 buildcell_symmetry="1 P1 P 1 @ 0.01" pbc="T T T"
Li       5.48092987       6.92019062       3.15854780
Li       0.24962635       0.35637611       6.85493025
Li       4.72100632       4.49111473       1.21417786
Li       1.01975278       2.85309547       4.99911732
Li       3.45016903       1.98285149       2.07858413
Li       2.04638026       5.03834588       6.06706565
Li      -0.05412435       4.34427719       3.21377542
Li       5.46932612       2.83505376       6.70930073
Li       0.82330570       7.22354454       1.16282260
Li       4.68840764       0.04129235       5.03331758
Li       4.37282178       4.84492396       4.75805186
Li       0.98981828       2.73636685       0.85275221
Cu       3.19622856       6.42195528       1.93100082
Cu       2.37292574       0.76973286       5.86552125
Cu       2.52397423       4.47929432       2.99073675
Cu       2.92105833       2.75833993       7.02886618
Cu       3.58172282       2.14558956       4.77614188
Cu       1.94271259       4.92422273       1.02033611
Cu       1.70206165       6.82140544       3.67417627
Cu       3.89869888       0.61865742       0.07108754
Cu       5.49645283       2.24870304       3.49244799
Cu      -0.13540910       5.12779215      -0.04585951
Cu      -0.94364806       1.36379542       1.44307488
Cu       6.40051688       6.08650593       5.34527994
8
Lattice="3.64435 0.0 0.0 0.0 6.0017 0.0 0.0 0.0 6.0017" Properties=species:S:1:pos:R:3 config_type=buildcell buildcell_config_i=1 RSS_min_vol_per_atom=8.0 buildcell_type=narrow gap_rss_group=ALL gap_rss_iter=0 buildcell_symmetry="1 P1 P 1 @ 0.01" pbc="T T T"
Li       0.89675830       1.32122893       3.68053083
Li       2.82156487       4.64322930       2.36252433
Li       3.73827066       3.69250545       4.61969720
Li       1.81243039       2.33959626       1.28848238
Cu       0.86634101      -0.11065857       1.30340067
Cu       2.60809103       5.81974744       4.55723228
Cu      -0.15974513       1.33466208       6.06759543
Cu       1.73065465       4.53256037      -0.06180537
20
Lattice="5.40214 0.0 0.0 1.176066309906597 6.501871922692931 0.0 1.548610498412464 1.3625460374349863 9.678191025893058" Properties=species:S:1:pos:R:3 config_type=buildcell buildcell_config_i=2 RSS_min_vol_per_atom=8.0 buildcell_type=narrow gap_rss_group=ALL gap_rss_iter=0 buildcell_symmetry="1 P1 P 1 @ 0.01" pbc="T T T"
Li       2.54483167       6.11092320       4.43246291
Li       5.67538432       5.56882854       0.55179991
Li       3.17006976       1.61631341       5.18688568
Li       6.75533787       2.55967653       8.10268840
Li       1.95427927       2.59463430       1.60240522
Li       3.25411478       0.50055733       2.59177275
Li       6.30193849       3.15902683       5.70172845
Li       4.57480559       6.44646365       9.16091374
Li       4.78462778       4.61981376       7.21880153
Li       3.95589613       2.03928287       7.68569414
Cu       5.52059631       3.98358553       3.24241795
Cu       4.81014004       2.90339797       9.76853424
Cu       5.26183644       1.42518339       3.97151542
Cu       5.97387363       3.35030837      -0.26030207
Cu       5.45140613       5.88580161       4.74939279
Cu       4.20492397       3.44935649       1.38673210
Cu       2.86617976       4.91632394       2.14813838
Cu       1.07825681       0.71858264       0.57522668
Cu       2.22380336       5.00470389       7.03312571
Cu       3.35196879       4.04170862       5.48937442
8
Lattice="4.36095 0.0 0.0 0.0 4.49148 0.0 0.0 0.0 6.80681" Properties=species:S:1:pos:R:3 config_type=buildcell buildcell_config_i=3 RSS_min_vol_per_atom=8.0 buildcell_type=narrow gap_rss_group=ALL gap_rss_iter=0 buildcell_symmetry="1 P1 P 1 @ 0.01" pbc="T T T"
Li       3.22673906       0.93972780       4.42379212
Li       3.32937063       3.51451043       2.42437304
Li       1.34180364       3.61466924       4.31207583
Li       1.23813836       0.90721246       2.40121376
Cu       1.02079105       1.13824977       5.35017811
Cu       0.94036607       3.06061910       1.31556484
Cu       3.27355277       3.02067184       5.66923477
Cu       3.34177755       1.33633061       1.14166528
22
Lattice="4.34248 0.0 0.0 0.09878242253270832 5.300179548185001 0.0 2.013053051858549 1.301741077067949 15.719656788196012" Properties=species:S:1:pos:R:3 config_type=buildcell buildcell_config_i=4 RSS_min_vol_per_atom=8.0 buildcell_type=narrow gap_rss_group=ALL gap_rss_iter=0 buildcell_symmetry="1 P1 P 1 @ 0.01" pbc="T T T"
Li       5.37057705       2.26213683       8.38069051
Li       1.47795148       3.92009963      10.38737702
Li       2.27449984       5.22374708       7.71301869
Li       4.82074340       2.73206513       3.92112656
Li       2.86618407       4.10918783       4.92189057
Li       5.31443390       5.05486175      13.21788555
Li       3.40026557       2.19341233      10.44695330
Li       4.43005934       6.14194888       6.10501825
Li       3.14497571       3.68035836      13.67534054
Li       3.14465299       0.96005965      14.27455348
Li       5.30533689       2.69043766      12.67421125
Cu       5.35468919       1.82798124      15.51089424
Cu       3.17053015       2.64340068       7.07943381
Cu       2.83434641       3.41964773      16.25651691
Cu       3.34257445       2.30315268       1.80567357
Cu       4.93295872       4.19762642      15.59072641
Cu       5.69666453       0.95757291      10.63885854
Cu       2.14411776       1.69426480       5.48623812
Cu       4.39087337       5.53630969       8.87934166
Cu       4.11032292       4.84800856       2.75685357
Cu       5.01040200       3.69120111       6.15865173
Cu       3.29691992       5.19845096      11.33181122
10
Lattice="5.19979 0.0 0.0 -2.5998949999999987 4.503150234344287 0.0 0.0 0.0 7.066" Properties=species:S:1:pos:R:3 config_type=buildcell buildcell_config_i=5 RSS_min_vol_per_atom=8.0 buildcell_type=narrow gap_rss_group=ALL gap_rss_iter=0 buildcell_symmetry="1 P1 P 1 @ 0.01" pbc="T T T"
Li       4.17751119       1.17840961       2.99084044
Li       1.72078480       0.30880277       2.90265789
Li       2.26128469       3.05543956       2.87912414
Li       0.05425600      -0.04634177       0.70708941
Li       0.02419597       2.81077228       4.44628038
Cu       1.21767118       1.47183703       6.38399332
Cu       3.23450464       2.47213009       6.49913347
Cu       3.17790039       0.32342245       6.21009377
Cu      -0.05443827       0.01109226       5.09437203
Cu       0.03756954       2.94203644       1.26538966
6
Lattice="4.85394 0.0 0.0 0.0 4.90129 0.0 0.0 -2.4506449999999993 4.244641651314632" Properties=species:S:1:pos:R:3 config_type=buildcell buildcell_config_i=6 RSS_min_vol_per_atom=8.0 buildcell_type=narrow gap_rss_group=ALL gap_rss_iter=0 buildcell_symmetry="1 P1 P 1 @ 0.01" pbc="T T T"
Li       3.75589148       0.64630626       1.47693736
Li       3.85852305      -1.58115288       2.94345202
Li       3.86414134       0.97434832       4.06330164
Cu       0.97115896       3.72913638       1.18991618
Cu       0.94109918       1.44240843       0.18424530
Cu       0.86067420       1.84143655       2.68284057
6
Lattice="3.29387 0.0 0.0 0.26672385525208314 5.615519193052363 0.0 0.9516643624157508 2.5863444560693027 5.489846264101337" Properties=species:S:1:pos:R:3 config_type=buildcell buildcell_config_i=7 RSS_min_vol_per_atom=8.0 buildcell_type=narrow gap_rss_group=ALL gap_rss_iter=0 buildcell_symmetry="1 P1 P 1 @ 0.01" pbc="T T T"
Li       1.11382726       3.65588823       5.59519936
Li       2.86338959       2.88990873       3.50565327
Li       3.58654484       6.13885589       4.51706864
Cu       2.72810017       5.07113639       2.30338591
Cu       0.85642118       4.07019523       0.61265615
Cu       0.83134663       1.12607051       2.44444933
10
Lattice="5.71224 0.0 0.0 -2.4554629391760576 5.43202040153872 0.0 -1.3583151278607917 -2.739809565883911 5.467679226016788" Properties=species:S:1:pos:R:3 config_type=buildcell buildcell_config_i=8 RSS_min_vol_per_atom=8.0 buildcell_type=narrow gap_rss_group=ALL gap_rss_iter=0 buildcell_symmetry="1 P1 P 1 @ 0.01" pbc="T T T"
Li       3.06469841       2.57049327       2.68082372
Li       1.44743315       3.91119755       0.74811904
Li      -0.64129466      -0.99689148       4.52660494
Li       5.80438649      -0.25955807       2.00993108
Li       1.55360686       0.08372380       4.08606814
Cu      -1.27309598       1.48908302       0.89517042
Cu       0.46039892       2.06738278       2.56657665
Cu       3.21143566       1.48392513       5.49426942
Cu       2.75240171       0.65114483      -0.49080766
Cu      -0.92679979       1.27131151       3.88212293
6
Lattice="4.52751 0.0 0.0 0.0 4.97147 0.0 0.0 -2.485734999999999 4.305419314152224" Properties=species:S:1:pos:R:3 config_type=buildcell buildcell_config_i=9 RSS_min_vol_per_atom=8.0 buildcell_type=narrow gap_rss_group=ALL gap_rss_iter=0 buildcell_symmetry="1 P1 P 1 @ 0.01" pbc="T T T"
Li       1.55884126       3.68330219       0.06476885
Li       3.17064314      -1.87197965       3.17839361
Li       0.15792128       0.71391416       1.05666457
Cu       0.80884116       3.56131754       2.31561643
Cu       3.79712108       2.53629335      -0.17249178
Cu       2.20752625       1.02064120       1.97465464
