18
Lattice="4.25713 0.0 0.0 0.4052463115374309 8.21279798918038 0.0 0.3366458176442766 3.9638462121761457 7.330065429454191" Properties=species:S:1:pos:R:3 config_type=buildcell buildcell_config_i=10 RSS_min_vol_per_atom=8.0 buildcell_type=wide gap_rss_group=ALL gap_rss_iter=0 buildcell_symmetry="1 P1 P 1 @ 0.01" pbc="T T T"
Li       1.51773027       6.60048402       2.09981492
Li       4.51366734       6.68657373       6.93783289
Li       3.45920565       4.24579330       7.58680187
Li       2.28762574       7.15885732       5.32837635
Li       4.38551773       5.77031406       4.09987863
Li       3.54016997       4.85784019       1.91638258
Li       3.32043755       3.40294190       5.15588834
Li       1.44524984       3.91401039       3.02804090
Li       3.35089126       9.68361792       6.56034945
Cu       1.31434370      10.92346031       6.62715749
Cu       4.33239434       8.59986003       4.75241101
Cu       1.51559723       4.19038690       0.48809447
Cu       0.85657002       0.62808265       1.32800406
Cu       0.35555389      10.22432454       3.27536850
Cu       2.58661298       2.26154753       1.48543225
Cu       1.99164423       1.17810723       3.89301409
Cu       1.22597584       0.74149117      -1.27591666
Cu       3.55507053       7.68164687       2.76335520
22
Lattice="7.30467 0.0 0.0 0.0 7.30467 0.0 0.0 0.0 8.19003" Properties=species:S:1:pos:R:3 config_type=buildcell buildcell_config_i=11 RSS_min_vol_per_atom=8.0 buildcell_type=wide gap_rss_group=ALL gap_rss_iter=0 buildcell_symmetry="1 P1 P 1 @ 0.01" pbc="T T T"
Li       0.57224751       4.88607316       1.41950792
Li       6.93439689       2.38135507       1.33132537
Li       2.56269169       0.59931956       1.30779163
Li       4.95415559       6.73575214       1.30816610
Li       6.80629014       2.21344239       6.66279915
Li       0.46634734       4.79861648       6.86671566
Li       4.80909718       6.64086354       6.98185581
Li       2.38219278       0.52932891       6.69281611
Li       3.59789673       0.01109226       3.97991564
Li       0.03756980       3.59227113       4.06584563
Li       3.59216434       3.83756282       4.09366528
Cu       5.04942087       4.37530620       6.90691552
Cu       2.17036440       2.81565128       6.89618128
Cu       3.03130441       5.22903862       7.04613671
Cu       4.28148688       2.11936767       6.88114768
Cu       2.07749362       2.96555441       1.26674234
Cu       5.18955379       4.11674770       1.19343852
Cu       4.25454348       2.08178584       1.22219775
Cu       3.11471824       5.24831997       1.07710837
Cu      -0.03092124       0.03312634       1.89259123
Cu      -0.04791742      -0.01856590       6.28435978
Cu       7.18504934       0.08125258       4.23063900
22
Lattice="7.09792 0.0 0.0 1.8550828200205645 6.876468935497677 0.0 3.346718510584957 1.0194585487663868 6.785793340108078" Properties=species:S:1:pos:R:3 config_type=buildcell buildcell_config_i=12 RSS_min_vol_per_atom=8.0 buildcell_type=wide gap_rss_group=ALL gap_rss_iter=0 buildcell_symmetry="1 P1 P 1 @ 0.01" pbc="T T T"
Li       5.37962545       4.42710842       0.98665892
Li      10.23373645       3.06861914       4.81848939
Li       2.10664112       0.34572288       3.00334470
Li       3.83034637       0.19755644       1.01624580
Li       4.39620753       2.16604046       2.47311465
Li       2.68974671       4.75292604       1.61839447
Li       6.63884888       5.50176874       3.18431620
Li       7.85429693       5.98628170      -0.05187158
Li       3.90847198       0.58720452       4.70700075
Li       6.56612494       0.66444036       2.15997506
Li      10.97252801       4.49693092       7.05351865
Cu       3.04377576       7.48207329       0.41308944
Cu       2.97652372       2.36253351       0.46191682
Cu      10.48169360       5.65975535       4.97555402
Cu       7.72580552       3.86794421       4.36958682
Cu       6.09903347       2.32293482       5.32916893
Cu       9.01949912       2.55645551       2.65643668
Cu       5.21180723       2.02477714       0.12913210
Cu       5.25347884       4.34664827       4.30475955
Cu       4.69891590       6.03395319      -0.88514508
Cu       6.49414378       5.29033389       5.77450864
Cu       6.61003969       3.26726993       2.71207845
24
Lattice="4.95642 0.0 0.0 -2.478209999999999 4.292385631825267 0.0 0.0 0.0 15.93041" Properties=species:S:1:pos:R:3 config_type=buildcell buildcell_config_i=13 RSS_min_vol_per_atom=8.0 buildcell_type=wide gap_rss_group=ALL gap_rss_iter=0 buildcell_symmetry="1 P1 P 1 @ 0.01" pbc="T T T"
Li      -0.40961351       2.26203206       2.10847637
Li      -0.12531329       3.52879346      12.64056610
Li       0.89482248       2.83344745       7.30689622
Li      -1.13218307       2.55866071      14.97680886
Li       0.39520409       3.82604274       9.54075233
Li       0.75920246       1.86111490       4.43453271
Li       2.09748899       3.95538342      11.85511833
Li       4.90925828       0.35571562       6.25594090
Li       0.26006442      -0.14209869       0.97318023
Li       3.33120407       2.20467519       5.40198371
Li       2.73254377       0.49287297      16.05007564
Li       1.24251021       1.80225591      10.61920486
Cu       0.04108551       0.53438712       8.73587960
Cu      -1.83611821       3.98356225       3.57569730
Cu       1.82404036       3.91459117      14.03098214
Cu       0.61532061       1.31698704      13.50691953
Cu      -1.60706396       2.83933254       8.12347797
Cu       0.91561253       4.13839158       2.84210107
Cu       1.32892175       2.27677103      15.44279573
Cu      -1.23095180       2.17209765      10.31413586
Cu      -0.07370865       4.24359104       4.79581171
Cu       2.87857554       1.70690221      12.99216422
Cu       2.37976477       0.98340003       7.58256768
Cu       1.98495605       1.81982882       2.39007001
20
Lattice="5.9178 0.0 0.0 0.0 7.68599 0.0 0.0 0.0 7.68599" Properties=species:S:1:pos:R:3 config_type=buildcell buildcell_config_i=14 RSS_min_vol_per_atom=8.0 buildcell_type=wide gap_rss_group=ALL gap_rss_iter=0 buildcell_symmetry="1 P1 P 1 @ 0.01" pbc="T T T"
Li       0.16386661       5.88867724       1.80696681
Li       0.26649818       1.76007099       5.92037835
Li       3.23101648       1.81894143       1.73653889
Li       3.12735120       5.89745027       5.85593070
Li       5.82780103       5.71117565       5.77130026
Li       5.74737605       1.68220321       1.77362269
Li       2.75390240       1.60096759       6.04906855
Li       2.82212718       5.95054486       1.64101151
Li      -0.05443827       3.85408726      -0.11509936
Li       2.99646980      -0.06006387       3.81382563
Cu       4.56497647       5.70317528       3.77142992
Cu       4.51937604       2.25029703       3.79112600
Cu       1.68713349       3.57681263       2.03522393
Cu       1.68593326       3.98705702       5.53508429
Cu       1.28108804       5.48783709       3.76535816
Cu       1.22066845       2.12197866       3.87849186
Cu       4.28591470       3.59647562       5.55035586
Cu       4.21304464       3.84551816       2.22921017
Cu       0.10309995       0.09312801       3.75907325
Cu       2.92797876       3.87612134       0.09755451
16
Lattice="3.3704 0.0 0.0 0.0990119719796891 8.303009670559506 0.0 1.6593560114195318 3.348536812903615 8.510861753318236" Properties=species:S:1:pos:R:3 config_type=buildcell buildcell_config_i=15 RSS_min_vol_per_atom=8.0 buildcell_type=wide gap_rss_group=ALL gap_rss_iter=0 buildcell_symmetry="1 P1 P 1 @ 0.01" pbc="T T T"
Li       3.37845381       7.91804267       6.44349037
Li       1.77026408       3.78672533       5.11008279
Li       1.85837031       9.89924859       7.36324031
Li       1.78051820       8.45209538      -0.55443142
Li       1.65206797       7.01498051       4.21216121
Li       0.10410640       4.14697010       0.45445882
Li       1.52199844       5.37398859       7.37347462
Li       3.50876999       6.05283029       2.29491598
Cu       1.79226535       7.82306466       1.78051467
Cu       3.34078162       1.16804425       1.00389009
Cu       1.78535097       4.39177679       2.26782730
Cu       3.20734022       9.03453670       3.66132476
Cu       3.30950399       1.82201083       5.49747135
Cu       3.32286962       3.00501065       3.52666557
Cu       1.60641594       1.68886199       2.37146671
Cu       3.23119560       5.59417640       5.48555390
12
Lattice="4.23288 0.0 0.0 -1.0460007942483556 6.524130427952205 0.0 0.0 0.0 8.15233" Properties=species:S:1:pos:R:3 config_type=buildcell buildcell_config_i=16 RSS_min_vol_per_atom=8.0 buildcell_type=wide gap_rss_group=ALL gap_rss_iter=0 buildcell_symmetry="1 P1 P 1 @ 0.01" pbc="T T T"
Li       2.61840789       2.48002308       6.77529244
Li       0.77044571       4.00686558       2.61094489
Li       0.60830558       3.33992236       5.17075002
Li       2.79075091       3.21460978       1.09495948
Li       2.75880462       5.51005280       2.59673814
Li       0.39604206       0.72146649       6.87681966
Cu       1.18150409       5.29405727       0.81916960
Cu       1.89199508       1.09559561       4.60629491
Cu       1.46828830       6.06655134       6.40938317
Cu       1.70172244       0.40860748       2.41914815
Cu       0.49459623       2.02683391       0.97240533
Cu       2.52634122       4.76477883       4.92783569
24
Lattice="5.43691 0.0 0.0 0.0 8.86289 0.0 0.0 -4.431444999999998 7.675487890947065" Properties=species:S:1:pos:R:3 config_type=buildcell buildcell_config_i=17 RSS_min_vol_per_atom=8.0 buildcell_type=wide gap_rss_group=ALL gap_rss_iter=0 buildcell_symmetry="1 P1 P 1 @ 0.01" pbc="T T T"
Li       4.13657111       1.65467731       5.17608808
Li       4.23920268      -0.86257991       3.65144795
Li       4.24482098      -0.75259570       6.51784746
Li       1.40426631       1.62216197       5.06474625
Li       1.37420653      -1.03049260       3.50236987
Li       1.29378155      -0.93062228       6.59621964
Li       1.25919539       1.41893119       2.56003992
Li       1.32742017      -3.11464315       4.97513601
Li       1.29555953       1.57232534       7.70479132
Li       4.12448200       1.50009769       2.38430566
Li       4.02674154      -2.93616815       5.11626110
Li       3.98114111       1.64348757       7.69780632
Cu       3.88934406       8.06192129       1.04991651
Cu       3.88814382       1.40062617      -0.05028389
Cu       3.85689287       3.67955682       6.41232129
Cu       1.49646788       8.21182442       1.28844734
Cu       1.60281413       1.15047549      -0.03501232
Cu       1.52994407       3.64197499       6.62134112
Cu       3.99029379       3.91780272       1.28930593
Cu       3.85627260       3.74148404       3.77416310
Cu       3.83927641       5.74273669       2.51501812
Cu       1.43009550       3.90592729       1.50885168
Cu       1.54251515       3.80871099       3.71277219
Cu       1.48520419       5.79744215       2.77945528
22
Lattice="5.1033 0.0 0.0 2.5342551482408946 7.547512429139453 0.0 0.4423688268491665 3.846156794957364 11.36842818135099" Properties=species:S:1:pos:R:3 config_type=buildcell buildcell_config_i=18 RSS_min_vol_per_atom=8.0 buildcell_type=wide gap_rss_group=ALL gap_rss_iter=0 buildcell_symmetry="1 P1 P 1 @ 0.01" pbc="T T T"
Li       2.81633491      10.27382691       8.69384921
Li       5.46556346       1.08260055       2.71593413
Li       1.98993383       4.76530029       7.60143319
Li       6.30216744       6.65877064       3.67347458
Li       3.43317582       5.68874666       9.31531303
Li       4.61471563       5.41231143       1.91204810
Li       1.12715783       4.32662043      10.60152166
Li       6.83938611       6.93257125       0.77099658
Li       2.93119510       2.42344190       2.21729625
Li       5.13186040       8.92125571       9.00686320
Li       3.75860691       3.95898403      -0.00134972
Cu       6.09183244       6.97179401       9.72453874
Cu       1.90320680       4.30816269       1.38898648
Cu       7.37418212       9.01348833       6.60486243
Cu       0.71386315       2.42391719       4.63285038
Cu       4.86974154       3.77518255       6.50935001
Cu       3.17255985       7.39611878       4.99719879
Cu       3.78300002       3.45814891       4.46997823
Cu       4.36151568       7.96095613       6.87569583
Cu       3.45887880       3.50350742      10.24629018
Cu       4.54220652       7.90472225       1.10905901
Cu       5.18746890       9.55184341       5.81983809
16
Lattice="6.17159 0.0 0.0 -3.0857923554875186 6.64226922236782 0.0 0.0 -3.3758070746613575 7.33279132706409" Properties=species:S:1:pos:R:3 config_type=buildcell buildcell_config_i=19 RSS_min_vol_per_atom=8.0 buildcell_type=wide gap_rss_group=ALL gap_rss_iter=0 buildcell_symmetry="1 P1 P 1 @ 0.01" pbc="T T T"
Li       1.79878895       2.31860979       3.70879950
Li      -1.59681135       2.30902088       3.62061695
Li       4.99235512       1.83816655       1.02140579
Li       1.39141396       1.71508131       1.02178026
Li       4.86081542      -0.19795850       4.66364982
Li       1.27874444      -0.10791359       4.86756633
Li       1.65218749      -1.00142369       1.35381658
Li       4.40602223      -0.85344050       1.06477688
Cu       1.08652119       4.71834723       3.31076388
Cu      -1.10338466       4.64719110       3.39669387
Cu       4.17340087      -1.91606057       6.02995180
Cu       1.83224791      -2.01903390       5.90921716
Cu       1.97026324       0.23944853       7.05282780
Cu       4.24190222       0.50926220       7.20278323
Cu       1.13439529       2.22229436       5.90828476
Cu      -1.21794053       2.20634085       6.16184918
