6
Lattice="3.22802 0.0 0.0 1.2391917354547717 4.212046194580562 0.0 1.189788071873294 1.9113957313630516 5.133216376674096" Properties=species:S:1:pos:R:3 config_type=buildcell buildcell_config_i=80 RSS_min_vol_per_atom=6.0 buildcell_type=narrow_even gap_rss_group=ALL gap_rss_iter=0 buildcell_symmetry="1 P1 P 1 @ 0.01" pbc="T T T"
Cu       3.30806590       4.77668694       4.07228936
Cu       2.23226244       2.90165837       3.33664653
Cu       3.85255178       2.17014133       4.72326174
Cu       0.96479534       1.58400466       0.39529070
Cu       2.54878769       2.93218884       0.94182067
Cu       4.08253088       4.46169391       1.92757583
10
Lattice="2.3692 0.0 0.0 0.0 7.84698 0.0 0.0 -3.9234899999999984 6.795684022988416" Properties=species:S:1:pos:R:3 config_type=buildcell buildcell_config_i=81 RSS_min_vol_per_atom=6.0 buildcell_type=narrow_even gap_rss_group=ALL gap_rss_iter=0 buildcell_symmetry="1 P1 P 1 @ 0.01" pbc="T T T"
Cu       0.42593994      -0.20270010       2.24051990
Cu       0.52857151       2.11025582       5.52082541
Cu       0.53418981      -1.86805401       5.82443046
Cu       2.04718748       4.06602190       4.57336000
Cu       2.01712770       1.59849082       1.07895314
Cu       1.93670272       5.76700437       0.95573086
Cu       1.09379759       3.78225963       0.14656488
Cu       1.16202237       5.89198782       3.25536719
Cu       1.13016173       1.97283726       3.28274265
Cu       1.22216980      -0.06006387      -0.02916937
20
Lattice="5.67724 0.0 0.0 -0.3238569591975813 5.958585464217099 0.0 -1.7319138598712982 -2.020138907227773 6.58903010002916" Properties=species:S:1:pos:R:3 config_type=buildcell buildcell_config_i=82 RSS_min_vol_per_atom=6.0 buildcell_type=narrow_even gap_rss_group=ALL gap_rss_iter=0 buildcell_symmetry="1 P1 P 1 @ 0.01" pbc="T T T"
Cu      -1.25243139       0.06450400       6.20653164
Cu       0.48794191       4.35912600      -0.12221884
Cu       0.51435088       4.23496469       2.14316249
Cu       2.49423620       5.22980019       0.12294696
Cu       4.43143226       0.23063099       1.16730315
Cu       2.50539220      -0.60510170       2.48502865
Cu       0.80982044      -0.69569066       6.09379248
Cu       3.74646491       3.76359702       2.06189113
Cu       4.16655043      -0.78455189       3.90482442
Cu       2.90334201      -1.76933187       5.61024905
Cu       2.54326899       0.99652413       4.33863290
Cu       0.48192358       0.18847848       3.35110937
Cu       1.99093184       2.92792920       0.78592808
Cu       5.25634367       2.13693407       2.73850444
Cu       0.35360056       1.53622709       5.08842696
Cu       1.68671556       2.53986250       3.25109051
Cu       4.13037212       2.93516051       0.05360531
Cu       3.69959960       2.74382349       4.36199757
Cu       1.27770202       1.12480804       1.36544414
Cu       0.14037772       3.74842735       4.53699393
20
Lattice="3.65424 0.0 0.0 0.0 8.43409 0.0 0.0 0.0 8.43409" Properties=species:S:1:pos:R:3 config_type=buildcell buildcell_config_i=83 RSS_min_vol_per_atom=6.0 buildcell_type=narrow_even gap_rss_group=ALL gap_rss_iter=0 buildcell_symmetry="1 P1 P 1 @ 0.01" pbc="T T T"
Cu       0.28220861       5.10422650       7.78423841
Cu       0.38484018       3.29262173       0.69120675
Cu       0.39045848       0.79136392       5.07110549
Cu       0.28679320       7.67312779       3.26946409
Cu       3.90641951       1.56054549       7.28999105
Cu       3.82599453       6.58093338       1.00303190
Cu       3.79142088       0.83037680       1.89843839
Cu       3.85964565       7.46923565       6.53974167
Cu       0.77320141       5.83554408       4.36077606
Cu       0.86520948       2.54957431       3.92904521
Cu       0.76746902       4.14344240       5.82310210
Cu       0.72186859       4.55812991       2.48755381
Cu       2.18585620       3.16273137       7.47152225
Cu       2.18465596       5.14923827       0.84688598
Cu       2.15340501       0.79963878       3.21084618
Cu       2.09298541       7.55827698       5.18110384
Cu       2.68911420       5.17934988       5.82427174
Cu       2.61624415       3.01074390       2.70339428
Cu       2.75785233       2.73535467       5.27173214
Cu       2.62383114       5.82498969       3.17599062
14
Lattice="4.0919 0.0 0.0 0.0 4.20512 0.0 0.0 -1.9255255803253133 9.051886034187177" Properties=species:S:1:pos:R:3 config_type=buildcell buildcell_config_i=84 RSS_min_vol_per_atom=6.0 buildcell_type=narrow_even gap_rss_group=ALL gap_rss_iter=0 buildcell_symmetry="1 P1 P 1 @ 0.01" pbc="T T T"
Cu       3.64333963      -0.26038833       0.78665858
Cu       1.70002120       2.50274099       8.30658262
Cu       3.56542318      -0.98974761       7.07377664
Cu       1.41580790       3.29974374       1.88458898
Cu       0.43172001       1.66321974       0.29065521
Cu       2.39724503       0.32376354       8.62016378
Cu       0.14752663       0.73682228       3.08308451
Cu       2.26170140       1.40829459       5.97289158
Cu       2.23886381       1.25465331       1.78130697
Cu       0.28492188       0.97596950       7.12631033
Cu       0.06213337       2.11238533       4.97866034
Cu       2.06248293       0.43469140       3.94979161
Cu       3.41889178       2.78463532       2.80291532
Cu       1.37174154      -0.62716125       6.13328893
22
Lattice="3.83958 0.0 0.0 0.0 8.95894 0.0 0.0 -4.479469999999998 7.7586696309805605" Properties=species:S:1:pos:R:3 config_type=buildcell buildcell_config_i=85 RSS_min_vol_per_atom=6.0 buildcell_type=narrow_even gap_rss_group=ALL gap_rss_iter=0 buildcell_symmetry="1 P1 P 1 @ 0.01" pbc="T T T"
Cu       0.74706547       3.14774811       2.48835612
Cu       0.84969704       5.25584925       1.50279654
Cu       0.85531533       5.07431435       3.76192469
Cu       0.75165005       1.27155369       5.28850938
Cu       0.72159028      -0.99112261       6.05996762
Cu       0.64116530      -0.61938399       3.98122223
Cu       0.61982783      -1.54049316       1.97193001
Cu       0.68805260       3.60504164       5.49171512
Cu       0.65619196      -2.18793377       7.94268483
Cu       0.74820004       5.81866893       5.90413512
Cu       0.65045957       1.06640900       2.12312997
Cu       0.60485914       6.76075052      -0.42119892
Cu       2.65130621      -2.27300049       6.57380025
Cu       2.65010597      -0.21626890       2.62373327
Cu       2.61885502       2.33703868       6.05627176
Cu       2.55843543       6.51043961       1.15776300
Cu       2.66478168       4.59328155       5.18448159
Cu       2.59191162       2.04462876       1.61571330
Cu       2.32399673      -2.14660699       3.79541306
Cu       2.18997554       4.51259634       0.09755451
Cu       2.17297935       2.22116910       3.76870132
Cu       1.45789343       0.08125258       0.13562400
16
Lattice="4.46114 0.0 0.0 0.0 6.69113 0.0 0.0 0.0 6.69113" Properties=species:S:1:pos:R:3 config_type=buildcell buildcell_config_i=86 RSS_min_vol_per_atom=6.0 buildcell_type=narrow_even gap_rss_group=ALL gap_rss_iter=0 buildcell_symmetry="1 P1 P 1 @ 0.01" pbc="T T T"
Cu       2.89684591       2.56766840       5.10251059
Cu       2.99947748       4.08621983       1.62997456
Cu       3.00509578       5.11448521       4.06268773
Cu       2.90143050       1.60704649       2.53492185
Cu       1.09652848       0.34594964       1.38489147
Cu       1.01610350       6.05256922       5.16517148
Cu       0.98152984       1.41615289       6.30041721
Cu       1.04975462       5.14049956       0.39480285
Cu       3.54853185       4.43843968       6.08051031
Cu       3.64053993       2.20371871       0.46635096
Cu       3.54279947       6.38083749       2.26243286
Cu       3.49719903       0.57777482       4.30526306
Cu       0.96922658       4.68953212       2.68793297
Cu       0.96802634       1.87947753       3.88751526
Cu       0.93677539       2.79064120       1.65777867
Cu       0.87635580       3.82431455       4.99121135
22
Lattice="5.51722 0.0 0.0 0.0 5.51722 0.0 0.0 0.0 8.19286" Properties=species:S:1:pos:R:3 config_type=buildcell buildcell_config_i=87 RSS_min_vol_per_atom=6.0 buildcell_type=narrow_even gap_rss_group=ALL gap_rss_iter=0 buildcell_symmetry="1 P1 P 1 @ 0.01" pbc="T T T"
Cu       0.44604119       1.06570097       5.11580878
Cu       5.27315321       4.41427726       5.02762623
Cu       1.23744868       5.19759370       3.09487263
Cu       4.49194860       0.35002801       3.09524710
Cu       3.05552020       4.17058887       3.92036613
Cu       2.42966727       1.05402000       4.12428265
Cu       4.27111448       2.34466565       4.24656696
Cu       1.13272548       3.03807680       3.95752727
Cu       0.99126195       1.76563608       7.99416398
Cu       4.50908958       3.70261231       8.08009396
Cu       1.69437316       4.65674759       0.08224694
Cu       3.65690509       1.12795471      -0.03848770
Cu       4.43638980       2.23291516       1.66851685
Cu       1.12140268       3.16218448       1.81847228
Cu       2.41731735       1.07160619       6.24367235
Cu       3.01635340       4.36943956       6.49723677
Cu       3.34232749       4.26824042       1.81192708
Cu       2.17074611       1.00498337       1.84068632
Cu       4.54764438       2.30238235       6.32941956
Cu       1.04175433       3.34109201       6.51089583
Cu      -0.04791742      -0.01856590       6.93226029
Cu      -0.11962066       0.08125258       1.28559022
