4
Lattice="3.3323 0.0 0.0 0.0 3.7968 0.0 0.0 0.0 4.03224" Properties=species:S:1:pos:R:3 config_type=buildcell buildcell_config_i=10 RSS_min_vol_per_atom=8.0 buildcell_type=wide gap_rss_group=ALL gap_rss_iter=2 buildcell_symmetry="59 Pmmn P 2 2ab -1ab @ 0.01" pbc="T T T"
Li       1.74042797       0.33634105       2.01612000
Li       1.59187203       2.23474105       4.03224000
Cu       3.21869190       0.33641395       4.03224000
Cu       0.11360810       2.23481395       2.01612000
8
Lattice="3.70302 0.0 0.0 1.0526152297867994 4.8849268040085185 0.0 0.8853030541299255 2.257045104034135 7.514604158676875" Properties=species:S:1:pos:R:3 config_type=buildcell buildcell_config_i=11 RSS_min_vol_per_atom=8.0 buildcell_type=wide gap_rss_group=ALL gap_rss_iter=2 buildcell_symmetry="2 P-1 -P 1 @ 0.01" pbc="T T T"
Li       1.98944767       3.64184076       0.61756144
Li       3.65149061       3.50013115       6.89704272
Li       2.42066700       5.16827871       3.25549936
Li       3.22027128       1.97369319       4.25910480
Cu       2.42138784       5.95344250       5.67422725
Cu       3.21955045       1.18852941       1.84037691
Cu       3.84096172       3.36031335       2.27365846
Cu       1.79997657       3.78165856       5.24094570
6
Lattice="4.75056 0.0 0.0 0.0 5.37491 0.0 -2.1405613258470684 -2.6874548630177464 4.254187018917963" Properties=species:S:1:pos:R:3 config_type=buildcell buildcell_config_i=12 RSS_min_vol_per_atom=8.0 buildcell_type=wide gap_rss_group=ALL gap_rss_iter=2 buildcell_symmetry="5 C2 C 2y @ 0.01" pbc="T T T"
Li      -1.23143880      -0.12189617       2.09720061
Li       3.84143748       2.56555883       2.15698641
Li       2.37528000       3.28032639       0.00000000
Cu       1.59623311       1.46059451       2.34233112
Cu       1.01376557       4.14804950       1.91185590
Cu       0.00000000       1.68439306       0.00000000
4
Lattice="3.75649 0.0 0.0 0.0 4.53768 0.0 0.0 -0.27411913594822623 4.529392727696175" Properties=species:S:1:pos:R:3 config_type=buildcell buildcell_config_i=13 RSS_min_vol_per_atom=8.0 buildcell_type=wide gap_rss_group=ALL gap_rss_iter=2 buildcell_symmetry="47 Pmmm -P 2 2 @ 0.01" pbc="T T T"
Li       0.00000000       4.53768000       0.00000000
Li       0.00000000       2.13178043       2.26469636
Cu       1.87824500      -0.13705957       2.26469636
Cu       1.87824500       1.99472086       4.52939273
6
Lattice="4.58044 0.0 0.0 0.0 5.27971 0.0 0.0 -2.6398549999999985 4.572362984614739" Properties=species:S:1:pos:R:3 config_type=buildcell buildcell_config_i=14 RSS_min_vol_per_atom=8.0 buildcell_type=wide gap_rss_group=ALL gap_rss_iter=2 buildcell_symmetry="143 P3 P 3 @ 0.01" pbc="T T T"
Li      -0.35597622       0.50832969       4.52447708
Li      -0.35597622       1.02429225       1.86989802
Li      -0.35597622      -1.53262194       2.75035086
Cu       1.35304778       1.32679878       0.06069492
Cu       1.35304778       2.02901895       3.39297408
Cu       1.35304778       4.56374727       1.11869399
6
Lattice="4.5647 0.0 0.0 -0.4271530692370498 4.544670103037334 0.0 -0.4271530692370498 -0.4691837496147247 4.520386372262756" Properties=species:S:1:pos:R:3 config_type=buildcell buildcell_config_i=15 RSS_min_vol_per_atom=8.0 buildcell_type=wide gap_rss_group=ALL gap_rss_iter=2 buildcell_symmetry="146 R3 R 3 @ 0.01" pbc="T T T"
Li      -0.52805657       0.25331671       3.02184936
Li       3.01589054      -0.24692066       0.56393357
Li       0.30161936       3.05753176      -0.18738177
Cu       1.77608742       1.26956103       3.36756851
Cu       3.03818262       2.06947370       1.61043918
Cu       1.09778843       3.15475394       2.22467470
8
Lattice="3.15662 0.0 0.0 -0.6174734925297004 5.811729983371833 0.0 -0.7494546182939729 -0.8173543556588565 6.063060916896954" Properties=species:S:1:pos:R:3 config_type=buildcell buildcell_config_i=16 RSS_min_vol_per_atom=8.0 buildcell_type=wide gap_rss_group=ALL gap_rss_iter=2 buildcell_symmetry="1 P1 P 1 @ 0.01" pbc="T T T"
Li       2.18655109       0.45379554       4.76017521
Li       0.81422649       2.28499216       3.37991455
Li       1.33368285       1.85160330       0.78895459
Li      -1.12322384       2.95906806       5.66842538
Cu       1.19769195       5.23070346       0.84226163
Cu       0.22997660       0.12784074       2.33597126
Cu      -0.00860561       4.49696395       4.07374517
Cu       2.39457586       3.69825187       2.06495183
6
Lattice="4.56605 0.0 0.0 -2.283024999999999 3.9543152949499363 0.0 0.0 0.0 6.16966" Properties=species:S:1:pos:R:3 config_type=buildcell buildcell_config_i=17 RSS_min_vol_per_atom=8.0 buildcell_type=wide gap_rss_group=ALL gap_rss_iter=2 buildcell_symmetry="144 P3_1 P 31 @ 0.01" pbc="T T T"
Li       3.47969196       0.89334744       2.73031085
Li       1.31684060       0.49413994       0.67375772
Li       2.05254244       2.56682791       4.78686398
Cu       0.60078602       2.71689339       1.56639523
Cu      -0.23051932       2.07557265       5.67950211
Cu      -0.37026670       3.11616456       3.62294898
8
Lattice="4.92925 0.0 0.0 1.92387469823284 5.12674651714901 0.0 1.170426987799088 1.5464443380591897 6.275662052374732" Properties=species:S:1:pos:R:3 config_type=buildcell buildcell_config_i=18 RSS_min_vol_per_atom=8.0 buildcell_type=wide gap_rss_group=ALL gap_rss_iter=2 buildcell_symmetry="1 P1 P 1 @ 0.01" pbc="T T T"
Li       2.16509376       0.69098720       0.56136676
Li       2.34505982       3.75767632       0.63124061
Li       1.15097213       2.24524414       2.52243772
Li       5.78261327       4.52979888       5.66164186
Cu       3.34529879       4.93882104       4.43960604
Cu       4.73657807       4.57400113       2.63107320
Cu       2.38393456       2.85630930       4.60961121
Cu       4.61969209       1.00565736       0.91613809
8
Lattice="3.57531 0.0 0.0 0.07969650817903164 3.76087567263052 0.0 0.47082926734089714 1.7298249756965252 9.746187944241163" Properties=species:S:1:pos:R:3 config_type=buildcell buildcell_config_i=19 RSS_min_vol_per_atom=8.0 buildcell_type=wide gap_rss_group=ALL gap_rss_iter=2 buildcell_symmetry="1 P1 P 1 @ 0.01" pbc="T T T"
Li       2.71173358       2.89531211       4.13520131
Li       2.05363305       3.37772301       8.55904183
Li       0.84439857       0.97785544       4.96947305
Li       0.34184958       5.29163846       9.39357184
Cu       3.84129477       3.19336020       6.82114448
Cu       2.29878510       1.49124205       6.93698572
Cu       0.95284439       1.91439248       2.65396885
Cu       3.25407370       3.42440547      10.91794776
