4
Lattice="3.13056 0.0 0.0 -0.4976028763779192 3.1699116060736494 0.0 -0.5002330006324025 -0.4571329872497023 5.627889667419438" Properties=species:S:1:pos:R:3 config_type=buildcell buildcell_config_i=90 RSS_min_vol_per_atom=6.0 buildcell_type=wide_even gap_rss_group=ALL gap_rss_iter=2 buildcell_symmetry="1 P1 P 1 @ 0.01" pbc="T T T"
Cu      -0.60170773       3.34675459       4.06506073
Cu       0.99516033       1.97010609       3.04212368
Cu       1.30052944       1.83059944       5.31752337
Cu       1.43200778       0.41472102       1.40501447
6
Lattice="3.32596 0.0 0.0 -1.5266689303843723 4.607425006432448 0.0 0.0 0.0 5.10173" Properties=species:S:1:pos:R:3 config_type=buildcell buildcell_config_i=91 RSS_min_vol_per_atom=6.0 buildcell_type=wide_even gap_rss_group=ALL gap_rss_iter=2 buildcell_symmetry="7 Pc P -2yc @ 0.01" pbc="T T T"
Cu       0.62698231       1.33129979       0.94773512
Cu      -0.13635215       3.63501229       4.15399488
Cu       2.29031245       1.12413476       4.47380193
Cu       1.52697799       3.42784726       0.62792807
Cu       1.52632814       2.75848793       2.82836442
Cu       2.28966260       0.45477542       2.27336558
8
Lattice="4.97604 0.0 0.0 1.4374480756292087 4.763897260801275 0.0 1.4374480756292087 1.0677270884864363 4.642701366228735" Properties=species:S:1:pos:R:3 config_type=buildcell buildcell_config_i=92 RSS_min_vol_per_atom=6.0 buildcell_type=wide_even gap_rss_group=ALL gap_rss_iter=2 buildcell_symmetry="146 R3 R 3 @ 0.01" pbc="T T T"
Cu       1.03177778       2.38463879       0.76311107
Cu       2.58102853       0.81069606       0.12029007
Cu       1.52172556       0.61856205       2.15293716
Cu       4.30429069       4.06894569       4.12276106
Cu       5.13887219       4.67801952       1.94641262
Cu       5.96306829       2.69668318       3.04139977
Cu       6.46381941       4.80128305       3.82242100
Cu       3.68425199       2.73663843       2.17870600
8
Lattice="4.81299 0.0 0.0 -1.5070628025529524 4.570955529127498 0.0 -1.5070628025529524 -2.0837473539621527 4.068369626043948" Properties=species:S:1:pos:R:3 config_type=buildcell buildcell_config_i=93 RSS_min_vol_per_atom=6.0 buildcell_type=wide_even gap_rss_group=ALL gap_rss_iter=2 buildcell_symmetry="161 R3c R 3 -2\"c @ 0.01" pbc="T T T"
Cu       2.81163009       0.72656475       2.10666363
Cu       0.58579092       3.15364504       1.60703570
Cu      -0.19036149       0.55404589       3.53948971
Cu      -1.82070408       3.32004788       1.50530490
Cu       3.72319631       1.65414031       0.07247882
Cu       0.40513509      -1.78353661       3.64122051
Cu       0.61929019       0.85626444       1.40060663
Cu       1.51872239       2.09986853       3.43479144
6
Lattice="3.76115 0.0 0.0 0.0 4.61522 0.0 -1.8805773308662248 0.0 4.474066420554355" Properties=species:S:1:pos:R:3 config_type=buildcell buildcell_config_i=94 RSS_min_vol_per_atom=6.0 buildcell_type=wide_even gap_rss_group=ALL gap_rss_iter=2 buildcell_symmetry="20 C222_1 C 2c 2 @ 0.01" pbc="T T T"
Cu       1.62069005       1.18734011       2.91340736
Cu       0.25988262       3.49495011       1.56065906
Cu      -0.25988462       1.12026989       1.56065906
Cu       2.14045729       3.42787989       2.91340736
Cu      -0.00000191       0.00000000       4.03324695
Cu       1.88057458       2.30761000       0.44081947
8
Lattice="4.00096 0.0 0.0 0.2484456378916372 4.901257161944536 0.0 0.658704775811072 1.4014712034466459 6.015063750637519" Properties=species:S:1:pos:R:3 config_type=buildcell buildcell_config_i=95 RSS_min_vol_per_atom=6.0 buildcell_type=wide_even gap_rss_group=ALL gap_rss_iter=2 buildcell_symmetry="1 P1 P 1 @ 0.01" pbc="T T T"
Cu       4.32926509       5.17009072       3.67616456
Cu       4.08024371       3.69084576       1.61295619
Cu       1.27818179       0.75375727       1.28582574
Cu       3.18891545       1.73321527       0.46135298
Cu       1.20481537       2.26151580       3.02111630
Cu       1.07487779       1.64000508       5.23172861
Cu       1.61464035       4.02163159       5.30180290
Cu       2.32878800       4.26788677       2.98764247
8
Lattice="4.26733 0.0 0.0 -2.1336649999999993 3.695616186331449 0.0 0.0 0.0 6.50732" Properties=species:S:1:pos:R:3 config_type=buildcell buildcell_config_i=96 RSS_min_vol_per_atom=6.0 buildcell_type=wide_even gap_rss_group=ALL gap_rss_iter=2 buildcell_symmetry="174 P-6 P -6 @ 0.01" pbc="T T T"
Cu       1.31514139       2.27769289       5.95898719
Cu      -0.81869537       1.41782389       5.95898719
Cu      -0.49644538       3.69571523       5.95898719
Cu       0.51934686       3.68587898       2.70534150
Cu       0.79872640       1.40290912       2.70534150
Cu      -1.31807326       2.30244427       2.70534150
Cu       0.00000000       0.00000000       1.06706513
Cu       0.00000000       0.00000000       4.34358990
4
Lattice="3.20742 0.0 0.0 -0.07650490034353126 3.297832718411203 0.0 -0.7868199424116431 -1.6608845532235874 5.517759861346507" Properties=species:S:1:pos:R:3 config_type=buildcell buildcell_config_i=97 RSS_min_vol_per_atom=6.0 buildcell_type=wide_even gap_rss_group=ALL gap_rss_iter=2 buildcell_symmetry="1 P1 P 1 @ 0.01" pbc="T T T"
Cu       2.49158703       3.05476423       0.13299843
Cu       0.15547491       0.37683566       4.27941343
Cu       1.32723812       1.37794199       1.19262958
Cu       1.64142838       1.90559765       3.40926877
8
Lattice="4.04909 0.0 0.0 0.687154862864349 4.555849938139082 0.0 1.9554226071263587 1.0143415465493442 4.0703174037024485" Properties=species:S:1:pos:R:3 config_type=buildcell buildcell_config_i=98 RSS_min_vol_per_atom=6.0 buildcell_type=wide_even gap_rss_group=ALL gap_rss_iter=2 buildcell_symmetry="2 P-1 -P 1 @ 0.01" pbc="T T T"
Cu       2.34643455       3.28658370       4.31409726
Cu       2.22561516       5.17063312       3.00576944
Cu       5.41810990       2.78414343       2.29048401
Cu       3.38432378       3.67107445       1.71750299
Cu       3.50167825       1.78657655       3.02415547
Cu       2.52773055       1.28458329       1.00221716
Cu       4.36233307       4.18297264       3.76420756
Cu       5.30075514       4.66863971       0.98383235
8
Lattice="4.76807 0.0 0.0 -2.0066391735327263 4.755946150961331 0.0 -2.0066391735327263 -0.970537168767427 4.655865268119859" Properties=species:S:1:pos:R:3 config_type=buildcell buildcell_config_i=99 RSS_min_vol_per_atom=6.0 buildcell_type=wide_even gap_rss_group=ALL gap_rss_iter=2 buildcell_symmetry="9 Cc C -2yc @ 0.01" pbc="T T T"
Cu       2.36067362       1.54272646      -0.05620886
Cu      -0.02336138      -0.36984739       1.49879194
Cu      -1.21213815       1.56546998       1.91441870
Cu       1.17189685       1.55467041       1.92319920
Cu      -2.02042839       0.49150329       4.60987510
Cu       0.36360661       4.41256786       1.42188915
Cu      -1.52262821       2.63120156       3.92880349
Cu       0.86140679       3.30918397       3.37757604
