7
Lattice="2.94385 0.0 0.0 0.0 7.28361 0.0 0.0 -3.6418049999999984 6.3077912912583765" Properties=species:S:1:pos:R:3 config_type=buildcell buildcell_config_i=28 RSS_min_vol_per_atom=10.0 buildcell_type=narrow_odd gap_rss_group=ALL gap_rss_iter=2 buildcell_symmetry="143 P3 P 3 @ 0.01" pbc="T T T"
Li       0.91407720      -2.12243485       4.62991944
Li       0.91407720       1.42904028       5.83091407
Li       0.91407720       0.69339457       2.15474907
Li       2.00116918       2.67859820       0.66809413
Li       2.00116918       2.88109239       3.65401014
Li       2.00116918       5.36572441       1.98568702
Li       2.38593655       0.00000000       0.00000000
7
Lattice="3.59188 0.0 0.0 -0.1397981559068397 3.5891584542905104 0.0 -0.10397200330937897 -0.10810056410623961 10.750753802899949" Properties=species:S:1:pos:R:3 config_type=buildcell buildcell_config_i=29 RSS_min_vol_per_atom=10.0 buildcell_type=narrow_odd gap_rss_group=ALL gap_rss_iter=2 buildcell_symmetry="5 C2 C 2y @ 0.01" pbc="T T T"
Li       1.47627969       2.45962537       2.66630090
Li       0.94780581       1.91016665       8.08445290
Li       3.01007093      -0.01160044       6.68271587
Li       3.47685528       0.47371917       4.06803794
Li       3.37451414       0.45715154       1.37002661
Li       3.02264283       0.09130799       9.38072719
Li       1.57770560       1.93724935       0.00000000
